data_C_shell_porous_Cu_core_CO2_d2_rlx_MD
_audit_creation_date              2026-01-08
_audit_creation_method            'Materials Studio'
_symmetry_space_group_name_H-M    'P1'
_symmetry_Int_Tables_number       1
_symmetry_cell_setting            triclinic
loop_
_symmetry_equiv_pos_as_xyz
  x,y,z
_cell_length_a                    60.0000
_cell_length_b                    60.0000
_cell_length_c                    60.0000
_cell_angle_alpha                 90.0000
_cell_angle_beta                  90.0000
_cell_angle_gamma                 90.0000
loop_
_atom_site_label
_atom_site_type_symbol
_atom_site_fract_x
_atom_site_fract_y
_atom_site_fract_z
_atom_site_U_iso_or_equiv
_atom_site_adp_type
_atom_site_occupancy
C1     C     0.49271   0.89039   0.50102   0.00000  Uiso   1.00
C2     C     0.38565   0.87157   0.49524   0.00000  Uiso   1.00
C3     C     0.38118   0.76434   0.35272   0.00000  Uiso   1.00
C4     C     0.39692   0.83257   0.45835   0.00000  Uiso   1.00
C5     C     0.37688   0.84631   0.46337   0.00000  Uiso   1.00
C6     C     0.46072   0.86846   0.49494   0.00000  Uiso   1.00
C7     C     0.43027   0.76627   0.32629   0.00000  Uiso   1.00
C8     C     0.44294   0.88649   0.49645   0.00000  Uiso   1.00
C9     C     0.32487   0.76887   0.46446   0.00000  Uiso   1.00
C10    C     0.38187   0.82566   0.41115   0.00000  Uiso   1.00
C11    C     0.45605   0.85953   0.36899   0.00000  Uiso   1.00
C12    C     0.44130   0.81333   0.41439   0.00000  Uiso   1.00
C13    C     0.45582   0.81859   0.33056   0.00000  Uiso   1.00
C14    C     0.40089   0.84446   0.35640   0.00000  Uiso   1.00
C15    C     0.42953   0.83524   0.49293   0.00000  Uiso   1.00
C16    C     0.44494   0.79747   0.34114   0.00000  Uiso   1.00
C17    C     0.40044   0.85307   0.39948   0.00000  Uiso   1.00
C18    C     0.46480   0.86463   0.45191   0.00000  Uiso   1.00
C19    C     0.43178   0.84029   0.44206   0.00000  Uiso   1.00
C20    C     0.48025   0.85995   0.37525   0.00000  Uiso   1.00
C21    C     0.42170   0.82770   0.40220   0.00000  Uiso   1.00
C22    C     0.32204   0.76427   0.48718   0.00000  Uiso   1.00
C23    C     0.44851   0.87383   0.43475   0.00000  Uiso   1.00
C24    C     0.38841   0.83039   0.50178   0.00000  Uiso   1.00
C25    C     0.36836   0.78591   0.38812   0.00000  Uiso   1.00
C26    C     0.43883   0.86740   0.38549   0.00000  Uiso   1.00
C27    C     0.37184   0.82603   0.38271   0.00000  Uiso   1.00
C28    C     0.48355   0.85743   0.39950   0.00000  Uiso   1.00
C29    C     0.40605   0.81422   0.38567   0.00000  Uiso   1.00
C30    C     0.36777   0.80267   0.44628   0.00000  Uiso   1.00
C31    C     0.42133   0.88268   0.48734   0.00000  Uiso   1.00
C32    C     0.36165   0.84102   0.44283   0.00000  Uiso   1.00
C33    C     0.42551   0.85174   0.40359   0.00000  Uiso   1.00
C34    C     0.39398   0.86213   0.42036   0.00000  Uiso   1.00
C35    C     0.35494   0.80776   0.38812   0.00000  Uiso   1.00
C36    C     0.38675   0.86607   0.46988   0.00000  Uiso   1.00
C37    C     0.44266   0.81618   0.43824   0.00000  Uiso   1.00
C38    C     0.47552   0.84394   0.43287   0.00000  Uiso   1.00
C39    C     0.40792   0.82564   0.48568   0.00000  Uiso   1.00
C40    C     0.44221   0.83990   0.36199   0.00000  Uiso   1.00
C41    C     0.34445   0.76447   0.39828   0.00000  Uiso   1.00
C42    C     0.40835   0.84276   0.43923   0.00000  Uiso   1.00
C43    C     0.47764   0.82115   0.33913   0.00000  Uiso   1.00
C44    C     0.34128   0.79175   0.43163   0.00000  Uiso   1.00
C45    C     0.32407   0.79672   0.45066   0.00000  Uiso   1.00
C46    C     0.34474   0.81102   0.41637   0.00000  Uiso   1.00
C47    C     0.39362   0.82345   0.36834   0.00000  Uiso   1.00
C48    C     0.48866   0.84038   0.36256   0.00000  Uiso   1.00
C49    C     0.42396   0.79066   0.33150   0.00000  Uiso   1.00
C50    C     0.44595   0.79658   0.36631   0.00000  Uiso   1.00
C51    C     0.48583   0.84108   0.34098   0.00000  Uiso   1.00
C52    C     0.33433   0.80413   0.37222   0.00000  Uiso   1.00
C53    C     0.38976   0.80369   0.40124   0.00000  Uiso   1.00
C54    C     0.46459   0.84672   0.41356   0.00000  Uiso   1.00
C55    C     0.38969   0.80769   0.45842   0.00000  Uiso   1.00
C56    C     0.32937   0.77750   0.41457   0.00000  Uiso   1.00
C57    C     0.37865   0.76961   0.33087   0.00000  Uiso   1.00
C58    C     0.43227   0.85001   0.47067   0.00000  Uiso   1.00
C59    C     0.44340   0.85250   0.42352   0.00000  Uiso   1.00
C60    C     0.42324   0.84954   0.35578   0.00000  Uiso   1.00
C61    C     0.37466   0.78235   0.36282   0.00000  Uiso   1.00
C62    C     0.33931   0.77777   0.49505   0.00000  Uiso   1.00
C63    C     0.37100   0.86135   0.42777   0.00000  Uiso   1.00
C64    C     0.48068   0.87095   0.48627   0.00000  Uiso   1.00
C65    C     0.41139   0.79751   0.35132   0.00000  Uiso   1.00
C66    C     0.46560   0.82406   0.44573   0.00000  Uiso   1.00
C67    C     0.32454   0.82841   0.41933   0.00000  Uiso   1.00
C68    C     0.47806   0.82083   0.36424   0.00000  Uiso   1.00
C69    C     0.40489   0.80358   0.43929   0.00000  Uiso   1.00
C70    C     0.37612   0.80958   0.33456   0.00000  Uiso   1.00
C71    C     0.45581   0.85634   0.47314   0.00000  Uiso   1.00
C72    C     0.42731   0.88358   0.44456   0.00000  Uiso   1.00
C73    C     0.40448   0.82963   0.41895   0.00000  Uiso   1.00
C74    C     0.39069   0.80312   0.35541   0.00000  Uiso   1.00
C75    C     0.42017   0.79592   0.37332   0.00000  Uiso   1.00
C76    C     0.49086   0.82762   0.47871   0.00000  Uiso   1.00
C77    C     0.46364   0.82191   0.40389   0.00000  Uiso   1.00
C78    C     0.44864   0.84212   0.34151   0.00000  Uiso   1.00
C79    C     0.48620   0.87671   0.41456   0.00000  Uiso   1.00
C80    C     0.38050   0.84331   0.39801   0.00000  Uiso   1.00
C81    C     0.34137   0.85373   0.47030   0.00000  Uiso   1.00
C82    C     0.46035   0.88291   0.41892   0.00000  Uiso   1.00
C83    C     0.33785   0.75765   0.37407   0.00000  Uiso   1.00
C84    C     0.45491   0.81994   0.37515   0.00000  Uiso   1.00
C85    C     0.48446   0.87558   0.46088   0.00000  Uiso   1.00
C86    C     0.41990   0.87063   0.46519   0.00000  Uiso   1.00
C87    C     0.36608   0.82948   0.49103   0.00000  Uiso   1.00
C88    C     0.36352   0.81962   0.42884   0.00000  Uiso   1.00
C89    C     0.46608   0.83163   0.47092   0.00000  Uiso   1.00
C90    C     0.35908   0.80769   0.46855   0.00000  Uiso   1.00
C91    C     0.33731   0.84045   0.45383   0.00000  Uiso   1.00
C92    C     0.33477   0.81650   0.46473   0.00000  Uiso   1.00
C93    C     0.36224   0.85156   0.47954   0.00000  Uiso   1.00
C94    C     0.23685   0.57056   0.33785   0.00000  Uiso   1.00
C95    C     0.19487   0.55443   0.42175   0.00000  Uiso   1.00
C96    C     0.21203   0.69112   0.49898   0.00000  Uiso   1.00
C97    C     0.20128   0.58838   0.35272   0.00000  Uiso   1.00
C98    C     0.22124   0.65539   0.46065   0.00000  Uiso   1.00
C99    C     0.20119   0.66992   0.46348   0.00000  Uiso   1.00
C100   C     0.17308   0.54413   0.38830   0.00000  Uiso   1.00
C101   C     0.25501   0.58117   0.32991   0.00000  Uiso   1.00
C102   C     0.17333   0.56055   0.40906   0.00000  Uiso   1.00
C103   C     0.15797   0.57509   0.46213   0.00000  Uiso   1.00
C104   C     0.25492   0.66947   0.33417   0.00000  Uiso   1.00
C105   C     0.20616   0.57287   0.43546   0.00000  Uiso   1.00
C106   C     0.20669   0.64565   0.40950   0.00000  Uiso   1.00
C107   C     0.22170   0.60686   0.41749   0.00000  Uiso   1.00
C108   C     0.22309   0.57990   0.35769   0.00000  Uiso   1.00
C109   C     0.28120   0.68209   0.36795   0.00000  Uiso   1.00
C110   C     0.20290   0.54196   0.34881   0.00000  Uiso   1.00
C111   C     0.27792   0.64048   0.33171   0.00000  Uiso   1.00
C112   C     0.22263   0.66021   0.34968   0.00000  Uiso   1.00
C113   C     0.15577   0.55256   0.44986   0.00000  Uiso   1.00
C114   C     0.24251   0.69324   0.36956   0.00000  Uiso   1.00
C115   C     0.26973   0.61831   0.34103   0.00000  Uiso   1.00
C116   C     0.22522   0.68243   0.40151   0.00000  Uiso   1.00
C117   C     0.29716   0.71175   0.36355   0.00000  Uiso   1.00
C118   C     0.21438   0.55455   0.46667   0.00000  Uiso   1.00
C119   C     0.24068   0.71469   0.35616   0.00000  Uiso   1.00
C120   C     0.24533   0.64520   0.40400   0.00000  Uiso   1.00
C121   C     0.21915   0.61912   0.47908   0.00000  Uiso   1.00
C122   C     0.20765   0.65183   0.50377   0.00000  Uiso   1.00
C123   C     0.19177   0.61084   0.38958   0.00000  Uiso   1.00
C124   C     0.15310   0.56968   0.48358   0.00000  Uiso   1.00
C125   C     0.20472   0.57285   0.46140   0.00000  Uiso   1.00
C126   C     0.26470   0.68993   0.38406   0.00000  Uiso   1.00
C127   C     0.22587   0.54625   0.33736   0.00000  Uiso   1.00
C128   C     0.19305   0.64849   0.38154   0.00000  Uiso   1.00
C129   C     0.23105   0.63046   0.38178   0.00000  Uiso   1.00
C130   C     0.19087   0.62676   0.44996   0.00000  Uiso   1.00
C131   C     0.24981   0.71122   0.48443   0.00000  Uiso   1.00
C132   C     0.18150   0.66274   0.44177   0.00000  Uiso   1.00
C133   C     0.24963   0.67138   0.40224   0.00000  Uiso   1.00
C134   C     0.21602   0.68295   0.42513   0.00000  Uiso   1.00
C135   C     0.22487   0.70643   0.43179   0.00000  Uiso   1.00
C136   C     0.17648   0.63152   0.38954   0.00000  Uiso   1.00
C137   C     0.19827   0.56372   0.36249   0.00000  Uiso   1.00
C138   C     0.20852   0.69185   0.47617   0.00000  Uiso   1.00
C139   C     0.26870   0.71286   0.39720   0.00000  Uiso   1.00
C140   C     0.22786   0.64604   0.48954   0.00000  Uiso   1.00
C141   C     0.26287   0.65816   0.36259   0.00000  Uiso   1.00
C142   C     0.14749   0.54755   0.48385   0.00000  Uiso   1.00
C143   C     0.23004   0.57514   0.37997   0.00000  Uiso   1.00
C144   C     0.28986   0.68462   0.33337   0.00000  Uiso   1.00
C145   C     0.16772   0.58294   0.40105   0.00000  Uiso   1.00
C146   C     0.22886   0.66329   0.43757   0.00000  Uiso   1.00
C147   C     0.16095   0.60990   0.42962   0.00000  Uiso   1.00
C148   C     0.20705   0.54711   0.40219   0.00000  Uiso   1.00
C149   C     0.21485   0.64321   0.36750   0.00000  Uiso   1.00
C150   C     0.18262   0.69404   0.49149   0.00000  Uiso   1.00
C151   C     0.18744   0.59043   0.40282   0.00000  Uiso   1.00
C152   C     0.24785   0.61036   0.32839   0.00000  Uiso   1.00
C153   C     0.18308   0.60426   0.44149   0.00000  Uiso   1.00
C154   C     0.18631   0.54775   0.49932   0.00000  Uiso   1.00
C155   C     0.21164   0.56514   0.38322   0.00000  Uiso   1.00
C156   C     0.21024   0.55152   0.49225   0.00000  Uiso   1.00
C157   C     0.21492   0.62648   0.40186   0.00000  Uiso   1.00
C158   C     0.21443   0.62988   0.45696   0.00000  Uiso   1.00
C159   C     0.22088   0.69572   0.38064   0.00000  Uiso   1.00
C160   C     0.19956   0.59215   0.32784   0.00000  Uiso   1.00
C161   C     0.25716   0.68124   0.42608   0.00000  Uiso   1.00
C162   C     0.24528   0.67096   0.35484   0.00000  Uiso   1.00
C163   C     0.19338   0.60819   0.36362   0.00000  Uiso   1.00
C164   C     0.16161   0.60435   0.49573   0.00000  Uiso   1.00
C165   C     0.20092   0.59429   0.42559   0.00000  Uiso   1.00
C166   C     0.19055   0.68454   0.42846   0.00000  Uiso   1.00
C167   C     0.23208   0.60946   0.34965   0.00000  Uiso   1.00
C168   C     0.21036   0.70762   0.45837   0.00000  Uiso   1.00
C169   C     0.28479   0.69787   0.35358   0.00000  Uiso   1.00
C170   C     0.22927   0.62035   0.43880   0.00000  Uiso   1.00
C171   C     0.24941   0.70588   0.44265   0.00000  Uiso   1.00
C172   C     0.22859   0.64495   0.42118   0.00000  Uiso   1.00
C173   C     0.21451   0.62763   0.35311   0.00000  Uiso   1.00
C174   C     0.24598   0.61330   0.37167   0.00000  Uiso   1.00
C175   C     0.17990   0.60970   0.47849   0.00000  Uiso   1.00
C176   C     0.27175   0.66094   0.34341   0.00000  Uiso   1.00
C177   C     0.22556   0.71234   0.50218   0.00000  Uiso   1.00
C178   C     0.20096   0.66486   0.39871   0.00000  Uiso   1.00
C179   C     0.28567   0.71122   0.41397   0.00000  Uiso   1.00
C180   C     0.17910   0.58971   0.46102   0.00000  Uiso   1.00
C181   C     0.24614   0.69869   0.46715   0.00000  Uiso   1.00
C182   C     0.18514   0.64948   0.49077   0.00000  Uiso   1.00
C183   C     0.18652   0.64322   0.42517   0.00000  Uiso   1.00
C184   C     0.17603   0.63000   0.46968   0.00000  Uiso   1.00
C185   C     0.18472   0.67326   0.47883   0.00000  Uiso   1.00
C186   C     0.31657   0.75714   0.42577   0.00000  Uiso   1.00
C187   C     0.22425   0.76571   0.47655   0.00000  Uiso   1.00
C188   C     0.29001   0.78862   0.49865   0.00000  Uiso   1.00
C189   C     0.31105   0.79678   0.37056   0.00000  Uiso   1.00
C190   C     0.27726   0.78209   0.47881   0.00000  Uiso   1.00
C191   C     0.24817   0.75786   0.46635   0.00000  Uiso   1.00
C192   C     0.21677   0.72963   0.47213   0.00000  Uiso   1.00
C193   C     0.24095   0.72835   0.46756   0.00000  Uiso   1.00
C194   C     0.30617   0.80860   0.49909   0.00000  Uiso   1.00
C195   C     0.30436   0.80253   0.44281   0.00000  Uiso   1.00
C196   C     0.30507   0.81261   0.41438   0.00000  Uiso   1.00
C197   C     0.25740   0.74148   0.40751   0.00000  Uiso   1.00
C198   C     0.26858   0.79028   0.41624   0.00000  Uiso   1.00
C199   C     0.31013   0.73929   0.35369   0.00000  Uiso   1.00
C200   C     0.28511   0.72576   0.38053   0.00000  Uiso   1.00
C201   C     0.24472   0.73228   0.37421   0.00000  Uiso   1.00
C202   C     0.26677   0.78451   0.44222   0.00000  Uiso   1.00
C203   C     0.21914   0.75236   0.49720   0.00000  Uiso   1.00
C204   C     0.24474   0.77267   0.41085   0.00000  Uiso   1.00
C205   C     0.30842   0.78935   0.40341   0.00000  Uiso   1.00
C206   C     0.31418   0.75263   0.37382   0.00000  Uiso   1.00
C207   C     0.20859   0.73043   0.49556   0.00000  Uiso   1.00
C208   C     0.29870   0.76470   0.50017   0.00000  Uiso   1.00
C209   C     0.24664   0.72454   0.39919   0.00000  Uiso   1.00
C210   C     0.26559   0.75905   0.48426   0.00000  Uiso   1.00
C211   C     0.29004   0.78497   0.45169   0.00000  Uiso   1.00
C212   C     0.26030   0.80081   0.47621   0.00000  Uiso   1.00
C213   C     0.30543   0.76482   0.44927   0.00000  Uiso   1.00
C214   C     0.22720   0.72014   0.41235   0.00000  Uiso   1.00
C215   C     0.29067   0.82375   0.44526   0.00000  Uiso   1.00
C216   C     0.31130   0.82628   0.48074   0.00000  Uiso   1.00
C217   C     0.24995   0.75073   0.42524   0.00000  Uiso   1.00
C218   C     0.23123   0.73577   0.42597   0.00000  Uiso   1.00
C219   C     0.36868   0.55425   0.24812   0.00000  Uiso   1.00
C220   C     0.38025   0.58656   0.17608   0.00000  Uiso   1.00
C221   C     0.35221   0.54321   0.21173   0.00000  Uiso   1.00
C222   C     0.35281   0.55958   0.23193   0.00000  Uiso   1.00
C223   C     0.38387   0.64221   0.23808   0.00000  Uiso   1.00
C224   C     0.40187   0.60849   0.23889   0.00000  Uiso   1.00
C225   C     0.40374   0.58115   0.18054   0.00000  Uiso   1.00
C226   C     0.45622   0.68359   0.19339   0.00000  Uiso   1.00
C227   C     0.38009   0.54279   0.17040   0.00000  Uiso   1.00
C228   C     0.44642   0.63450   0.23533   0.00000  Uiso   1.00
C229   C     0.48858   0.61786   0.19492   0.00000  Uiso   1.00
C230   C     0.33459   0.55528   0.26852   0.00000  Uiso   1.00
C231   C     0.39789   0.67679   0.21995   0.00000  Uiso   1.00
C232   C     0.33647   0.69014   0.22653   0.00000  Uiso   1.00
C233   C     0.47636   0.68099   0.19878   0.00000  Uiso   1.00
C234   C     0.42715   0.64504   0.22264   0.00000  Uiso   1.00
C235   C     0.44912   0.70589   0.26248   0.00000  Uiso   1.00
C236   C     0.36934   0.61031   0.21162   0.00000  Uiso   1.00
C237   C     0.43708   0.68647   0.20723   0.00000  Uiso   1.00
C238   C     0.40372   0.54648   0.16136   0.00000  Uiso   1.00
C239   C     0.36647   0.65190   0.20323   0.00000  Uiso   1.00
C240   C     0.48125   0.67989   0.22319   0.00000  Uiso   1.00
C241   C     0.41246   0.63409   0.20500   0.00000  Uiso   1.00
C242   C     0.35980   0.66760   0.26530   0.00000  Uiso   1.00
C243   C     0.42693   0.67175   0.22583   0.00000  Uiso   1.00
C244   C     0.39460   0.67875   0.24591   0.00000  Uiso   1.00
C245   C     0.40564   0.70091   0.25344   0.00000  Uiso   1.00
C246   C     0.35291   0.63233   0.21428   0.00000  Uiso   1.00
C247   C     0.37153   0.56310   0.18349   0.00000  Uiso   1.00
C248   C     0.36352   0.68691   0.22483   0.00000  Uiso   1.00
C249   C     0.48777   0.56156   0.17573   0.00000  Uiso   1.00
C250   C     0.44769   0.70686   0.21970   0.00000  Uiso   1.00
C251   C     0.46174   0.54818   0.20071   0.00000  Uiso   1.00
C252   C     0.42430   0.55271   0.19483   0.00000  Uiso   1.00
C253   C     0.44386   0.66383   0.18280   0.00000  Uiso   1.00
C254   C     0.49417   0.70271   0.18786   0.00000  Uiso   1.00
C255   C     0.41025   0.57235   0.19943   0.00000  Uiso   1.00
C256   C     0.34643   0.58371   0.22292   0.00000  Uiso   1.00
C257   C     0.42243   0.59603   0.23371   0.00000  Uiso   1.00
C258   C     0.34194   0.61266   0.25257   0.00000  Uiso   1.00
C259   C     0.32446   0.61579   0.27249   0.00000  Uiso   1.00
C260   C     0.34347   0.63390   0.23955   0.00000  Uiso   1.00
C261   C     0.38067   0.54762   0.22091   0.00000  Uiso   1.00
C262   C     0.39390   0.64504   0.19145   0.00000  Uiso   1.00
C263   C     0.48732   0.65997   0.18486   0.00000  Uiso   1.00
C264   C     0.36512   0.59525   0.22570   0.00000  Uiso   1.00
C265   C     0.44616   0.61983   0.18584   0.00000  Uiso   1.00
C266   C     0.49219   0.57586   0.19522   0.00000  Uiso   1.00
C267   C     0.38670   0.56272   0.20355   0.00000  Uiso   1.00
C268   C     0.38942   0.62356   0.22140   0.00000  Uiso   1.00
C269   C     0.32040   0.66614   0.25362   0.00000  Uiso   1.00
C270   C     0.42659   0.55017   0.21883   0.00000  Uiso   1.00
C271   C     0.46616   0.66445   0.23664   0.00000  Uiso   1.00
C272   C     0.32973   0.59819   0.23672   0.00000  Uiso   1.00
C273   C     0.32382   0.68948   0.24881   0.00000  Uiso   1.00
C274   C     0.44324   0.67652   0.24513   0.00000  Uiso   1.00
C275   C     0.37493   0.60805   0.18621   0.00000  Uiso   1.00
C276   C     0.37071   0.70996   0.26022   0.00000  Uiso   1.00
C277   C     0.32998   0.55686   0.24418   0.00000  Uiso   1.00
C278   C     0.38059   0.59649   0.24438   0.00000  Uiso   1.00
C279   C     0.33026   0.69491   0.27311   0.00000  Uiso   1.00
C280   C     0.37014   0.68665   0.24821   0.00000  Uiso   1.00
C281   C     0.42366   0.59150   0.20799   0.00000  Uiso   1.00
C282   C     0.40152   0.54358   0.23397   0.00000  Uiso   1.00
C283   C     0.40849   0.61022   0.17473   0.00000  Uiso   1.00
C284   C     0.38949   0.70853   0.27811   0.00000  Uiso   1.00
C285   C     0.32263   0.65045   0.23850   0.00000  Uiso   1.00
C286   C     0.47536   0.63847   0.18486   0.00000  Uiso   1.00
C287   C     0.42792   0.70425   0.26660   0.00000  Uiso   1.00
C288   C     0.40773   0.64766   0.24557   0.00000  Uiso   1.00
C289   C     0.39116   0.62529   0.17692   0.00000  Uiso   1.00
C290   C     0.42303   0.61408   0.19370   0.00000  Uiso   1.00
C291   C     0.46292   0.64455   0.22515   0.00000  Uiso   1.00
C292   C     0.48381   0.69977   0.23544   0.00000  Uiso   1.00
C293   C     0.37812   0.66084   0.22063   0.00000  Uiso   1.00
C294   C     0.33607   0.67305   0.28906   0.00000  Uiso   1.00
C295   C     0.46026   0.71115   0.23949   0.00000  Uiso   1.00
C296   C     0.33950   0.57915   0.19791   0.00000  Uiso   1.00
C297   C     0.35192   0.71531   0.27735   0.00000  Uiso   1.00
C298   C     0.45293   0.64152   0.19538   0.00000  Uiso   1.00
C299   C     0.34621   0.55845   0.19137   0.00000  Uiso   1.00
C300   C     0.36370   0.64330   0.25455   0.00000  Uiso   1.00
C301   C     0.35869   0.71207   0.30250   0.00000  Uiso   1.00
C302   C     0.33822   0.65913   0.27133   0.00000  Uiso   1.00
C303   C     0.33213   0.63847   0.28534   0.00000  Uiso   1.00
C304   C     0.49382   0.75576   0.24894   0.00000  Uiso   1.00
C305   C     0.37370   0.73144   0.24667   0.00000  Uiso   1.00
C306   C     0.40202   0.76580   0.29442   0.00000  Uiso   1.00
C307   C     0.47931   0.73751   0.21449   0.00000  Uiso   1.00
C308   C     0.33829   0.75409   0.28471   0.00000  Uiso   1.00
C309   C     0.38753   0.74565   0.25406   0.00000  Uiso   1.00
C310   C     0.46705   0.79309   0.31924   0.00000  Uiso   1.00
C311   C     0.47399   0.75423   0.23209   0.00000  Uiso   1.00
C312   C     0.41684   0.80502   0.31012   0.00000  Uiso   1.00
C313   C     0.33250   0.73180   0.27326   0.00000  Uiso   1.00
C314   C     0.45632   0.78569   0.29645   0.00000  Uiso   1.00
C315   C     0.42275   0.76094   0.28928   0.00000  Uiso   1.00
C316   C     0.39306   0.73151   0.29127   0.00000  Uiso   1.00
C317   C     0.41832   0.73431   0.29008   0.00000  Uiso   1.00
C318   C     0.39674   0.79136   0.29958   0.00000  Uiso   1.00
C319   C     0.48514   0.80974   0.32090   0.00000  Uiso   1.00
C320   C     0.47071   0.74154   0.28345   0.00000  Uiso   1.00
C321   C     0.37872   0.79016   0.31676   0.00000  Uiso   1.00
C322   C     0.46120   0.74631   0.30751   0.00000  Uiso   1.00
C323   C     0.33263   0.74864   0.30630   0.00000  Uiso   1.00
C324   C     0.38205   0.74987   0.27863   0.00000  Uiso   1.00
C325   C     0.43683   0.74457   0.22700   0.00000  Uiso   1.00
C326   C     0.46379   0.72372   0.20064   0.00000  Uiso   1.00
C327   C     0.44647   0.78508   0.26478   0.00000  Uiso   1.00
C328   C     0.42977   0.72872   0.26882   0.00000  Uiso   1.00
C329   C     0.32058   0.72610   0.30482   0.00000  Uiso   1.00
C330   C     0.39752   0.75529   0.31759   0.00000  Uiso   1.00
C331   C     0.49354   0.72080   0.22757   0.00000  Uiso   1.00
C332   C     0.38657   0.73300   0.31671   0.00000  Uiso   1.00
C333   C     0.47559   0.76981   0.31974   0.00000  Uiso   1.00
C334   C     0.42695   0.72281   0.22153   0.00000  Uiso   1.00
C335   C     0.44303   0.76538   0.30567   0.00000  Uiso   1.00
C336   C     0.44707   0.81946   0.30752   0.00000  Uiso   1.00
C337   C     0.47183   0.78624   0.27064   0.00000  Uiso   1.00
C338   C     0.44118   0.80641   0.29211   0.00000  Uiso   1.00
C339   C     0.48155   0.76361   0.27125   0.00000  Uiso   1.00
C340   C     0.40073   0.72125   0.23682   0.00000  Uiso   1.00
C341   C     0.49074   0.82532   0.30022   0.00000  Uiso   1.00
C342   C     0.42661   0.75586   0.24600   0.00000  Uiso   1.00
C343   C     0.45843   0.73643   0.23627   0.00000  Uiso   1.00
C344   C     0.36122   0.76600   0.28070   0.00000  Uiso   1.00
C345   C     0.40865   0.73777   0.24862   0.00000  Uiso   1.00
C346   C     0.45036   0.73842   0.26870   0.00000  Uiso   1.00
C347   C     0.43859   0.76024   0.26375   0.00000  Uiso   1.00
C348   C     0.30819   0.71540   0.32419   0.00000  Uiso   1.00
C349   C     0.31653   0.57812   0.24728   0.00000  Uiso   1.00
C350   C     0.22181   0.58836   0.29456   0.00000  Uiso   1.00
C351   C     0.28491   0.69470   0.31561   0.00000  Uiso   1.00
C352   C     0.26753   0.70918   0.32236   0.00000  Uiso   1.00
C353   C     0.30106   0.56117   0.21415   0.00000  Uiso   1.00
C354   C     0.31303   0.54408   0.28659   0.00000  Uiso   1.00
C355   C     0.29063   0.61197   0.32013   0.00000  Uiso   1.00
C356   C     0.29490   0.57647   0.23273   0.00000  Uiso   1.00
C357   C     0.23716   0.62440   0.31244   0.00000  Uiso   1.00
C358   C     0.24686   0.66502   0.31107   0.00000  Uiso   1.00
C359   C     0.27673   0.60627   0.30096   0.00000  Uiso   1.00
C360   C     0.28837   0.68196   0.27235   0.00000  Uiso   1.00
C361   C     0.24577   0.57750   0.29068   0.00000  Uiso   1.00
C362   C     0.23938   0.55216   0.29405   0.00000  Uiso   1.00
C363   C     0.21805   0.61337   0.30024   0.00000  Uiso   1.00
C364   C     0.29606   0.56272   0.28575   0.00000  Uiso   1.00
C365   C     0.30557   0.62133   0.26191   0.00000  Uiso   1.00
C366   C     0.28355   0.56673   0.30914   0.00000  Uiso   1.00
C367   C     0.29955   0.62537   0.23638   0.00000  Uiso   1.00
C368   C     0.26510   0.64321   0.26013   0.00000  Uiso   1.00
C369   C     0.29644   0.66092   0.25923   0.00000  Uiso   1.00
C370   C     0.22937   0.64547   0.30997   0.00000  Uiso   1.00
C371   C     0.26724   0.60463   0.26339   0.00000  Uiso   1.00
C372   C     0.25221   0.55136   0.27366   0.00000  Uiso   1.00
C373   C     0.27669   0.54732   0.32383   0.00000  Uiso   1.00
C374   C     0.21680   0.57574   0.31610   0.00000  Uiso   1.00
C375   C     0.30938   0.60973   0.22310   0.00000  Uiso   1.00
C376   C     0.20808   0.55391   0.31361   0.00000  Uiso   1.00
C377   C     0.31986   0.67351   0.30952   0.00000  Uiso   1.00
C378   C     0.26532   0.58333   0.30710   0.00000  Uiso   1.00
C379   C     0.25559   0.67083   0.29093   0.00000  Uiso   1.00
C380   C     0.26870   0.64439   0.30895   0.00000  Uiso   1.00
C381   C     0.29006   0.60609   0.27354   0.00000  Uiso   1.00
C382   C     0.25765   0.62254   0.29862   0.00000  Uiso   1.00
C383   C     0.30402   0.58439   0.27418   0.00000  Uiso   1.00
C384   C     0.30532   0.69500   0.30941   0.00000  Uiso   1.00
C385   C     0.28826   0.64463   0.26994   0.00000  Uiso   1.00
C386   C     0.27958   0.68125   0.29314   0.00000  Uiso   1.00
C387   C     0.31255   0.64512   0.30123   0.00000  Uiso   1.00
C388   C     0.28164   0.55934   0.24661   0.00000  Uiso   1.00
C389   C     0.30756   0.70252   0.28306   0.00000  Uiso   1.00
C390   C     0.25399   0.62423   0.27293   0.00000  Uiso   1.00
C391   C     0.28899   0.65257   0.29203   0.00000  Uiso   1.00
C392   C     0.27595   0.56285   0.27114   0.00000  Uiso   1.00
C393   C     0.25996   0.58012   0.26852   0.00000  Uiso   1.00
C394   C     0.49894   0.77159   0.28445   0.00000  Uiso   1.00
C395   C     0.31109   0.72660   0.28402   0.00000  Uiso   1.00
C396   C     0.49872   0.77071   0.30902   0.00000  Uiso   1.00
C397   C     0.28313   0.72696   0.32445   0.00000  Uiso   1.00
C398   C     0.49291   0.22166   0.42681   0.00000  Uiso   1.00
C399   C     0.47613   0.22455   0.34643   0.00000  Uiso   1.00
C400   C     0.40035   0.22804   0.47281   0.00000  Uiso   1.00
C401   C     0.32428   0.23704   0.46179   0.00000  Uiso   1.00
C402   C     0.35730   0.28485   0.34884   0.00000  Uiso   1.00
C403   C     0.43078   0.31255   0.33599   0.00000  Uiso   1.00
C404   C     0.38317   0.21312   0.43309   0.00000  Uiso   1.00
C405   C     0.46416   0.24382   0.40261   0.00000  Uiso   1.00
C406   C     0.38271   0.28761   0.41253   0.00000  Uiso   1.00
C407   C     0.40147   0.25105   0.41945   0.00000  Uiso   1.00
C408   C     0.46674   0.25595   0.49741   0.00000  Uiso   1.00
C409   C     0.34646   0.32947   0.33596   0.00000  Uiso   1.00
C410   C     0.35723   0.30295   0.36743   0.00000  Uiso   1.00
C411   C     0.45711   0.28465   0.33108   0.00000  Uiso   1.00
C412   C     0.47402   0.22126   0.40989   0.00000  Uiso   1.00
C413   C     0.49056   0.26124   0.37560   0.00000  Uiso   1.00
C414   C     0.40147   0.30893   0.35630   0.00000  Uiso   1.00
C415   C     0.41757   0.26549   0.49019   0.00000  Uiso   1.00
C416   C     0.34251   0.26532   0.35262   0.00000  Uiso   1.00
C417   C     0.45337   0.24885   0.47636   0.00000  Uiso   1.00
C418   C     0.44848   0.26342   0.33861   0.00000  Uiso   1.00
C419   C     0.42476   0.22418   0.46730   0.00000  Uiso   1.00
C420   C     0.41752   0.20402   0.46380   0.00000  Uiso   1.00
C421   C     0.33197   0.34855   0.34498   0.00000  Uiso   1.00
C422   C     0.32276   0.23466   0.48648   0.00000  Uiso   1.00
C423   C     0.39643   0.25424   0.47794   0.00000  Uiso   1.00
C424   C     0.33080   0.31391   0.33087   0.00000  Uiso   1.00
C425   C     0.46975   0.20927   0.46176   0.00000  Uiso   1.00
C426   C     0.37723   0.25732   0.49506   0.00000  Uiso   1.00
C427   C     0.36968   0.25524   0.39284   0.00000  Uiso   1.00
C428   C     0.46302   0.21399   0.48646   0.00000  Uiso   1.00
C429   C     0.38285   0.21719   0.45850   0.00000  Uiso   1.00
C430   C     0.37256   0.29309   0.38465   0.00000  Uiso   1.00
C431   C     0.41009   0.27786   0.38700   0.00000  Uiso   1.00
C432   C     0.37129   0.27099   0.44556   0.00000  Uiso   1.00
C433   C     0.43582   0.20489   0.41324   0.00000  Uiso   1.00
C434   C     0.44397   0.25396   0.41684   0.00000  Uiso   1.00
C435   C     0.35553   0.27645   0.38953   0.00000  Uiso   1.00
C436   C     0.44618   0.24908   0.44317   0.00000  Uiso   1.00
C437   C     0.32504   0.30934   0.39930   0.00000  Uiso   1.00
C438   C     0.36531   0.32432   0.35390   0.00000  Uiso   1.00
C439   C     0.48143   0.23986   0.36484   0.00000  Uiso   1.00
C440   C     0.45016   0.19741   0.50083   0.00000  Uiso   1.00
C441   C     0.47525   0.28857   0.34279   0.00000  Uiso   1.00
C442   C     0.39654   0.21661   0.49489   0.00000  Uiso   1.00
C443   C     0.42287   0.23945   0.41020   0.00000  Uiso   1.00
C444   C     0.33725   0.25875   0.42654   0.00000  Uiso   1.00
C445   C     0.32261   0.25866   0.44796   0.00000  Uiso   1.00
C446   C     0.34550   0.27967   0.41356   0.00000  Uiso   1.00
C447   C     0.48647   0.25278   0.39985   0.00000  Uiso   1.00
C448   C     0.39353   0.28989   0.37100   0.00000  Uiso   1.00
C449   C     0.33325   0.30060   0.37696   0.00000  Uiso   1.00
C450   C     0.36966   0.23206   0.39934   0.00000  Uiso   1.00
C451   C     0.34643   0.29247   0.33117   0.00000  Uiso   1.00
C452   C     0.42718   0.25403   0.33082   0.00000  Uiso   1.00
C453   C     0.36238   0.24744   0.43916   0.00000  Uiso   1.00
C454   C     0.44675   0.26480   0.36303   0.00000  Uiso   1.00
C455   C     0.49576   0.21442   0.37185   0.00000  Uiso   1.00
C456   C     0.33678   0.27076   0.37218   0.00000  Uiso   1.00
C457   C     0.39523   0.26841   0.40375   0.00000  Uiso   1.00
C458   C     0.47913   0.23329   0.50298   0.00000  Uiso   1.00
C459   C     0.32070   0.30933   0.43010   0.00000  Uiso   1.00
C460   C     0.39037   0.27336   0.45540   0.00000  Uiso   1.00
C461   C     0.44182   0.22675   0.48520   0.00000  Uiso   1.00
C462   C     0.38762   0.31517   0.33574   0.00000  Uiso   1.00
C463   C     0.37330   0.25154   0.36697   0.00000  Uiso   1.00
C464   C     0.47030   0.25055   0.45080   0.00000  Uiso   1.00
C465   C     0.43822   0.26348   0.47678   0.00000  Uiso   1.00
C466   C     0.37995   0.23685   0.42223   0.00000  Uiso   1.00
C467   C     0.42216   0.23674   0.38404   0.00000  Uiso   1.00
C468   C     0.45934   0.24271   0.37933   0.00000  Uiso   1.00
C469   C     0.48462   0.22839   0.45203   0.00000  Uiso   1.00
C470   C     0.41241   0.25453   0.35246   0.00000  Uiso   1.00
C471   C     0.32367   0.29227   0.41464   0.00000  Uiso   1.00
C472   C     0.47726   0.28353   0.36778   0.00000  Uiso   1.00
C473   C     0.39959   0.27104   0.43357   0.00000  Uiso   1.00
C474   C     0.37773   0.27870   0.33688   0.00000  Uiso   1.00
C475   C     0.39179   0.26953   0.35680   0.00000  Uiso   1.00
C476   C     0.42227   0.26005   0.37228   0.00000  Uiso   1.00
C477   C     0.35786   0.25362   0.47699   0.00000  Uiso   1.00
C478   C     0.44910   0.30545   0.34358   0.00000  Uiso   1.00
C479   C     0.42442   0.21946   0.42561   0.00000  Uiso   1.00
C480   C     0.44217   0.22578   0.38199   0.00000  Uiso   1.00
C481   C     0.46081   0.20113   0.41926   0.00000  Uiso   1.00
C482   C     0.35707   0.23445   0.45974   0.00000  Uiso   1.00
C483   C     0.45357   0.28603   0.37487   0.00000  Uiso   1.00
C484   C     0.36422   0.28872   0.42900   0.00000  Uiso   1.00
C485   C     0.43617   0.26742   0.45319   0.00000  Uiso   1.00
C486   C     0.45067   0.20692   0.44205   0.00000  Uiso   1.00
C487   C     0.35294   0.27708   0.46857   0.00000  Uiso   1.00
C488   C     0.33762   0.30477   0.45048   0.00000  Uiso   1.00
C489   C     0.32834   0.28387   0.46332   0.00000  Uiso   1.00
C490   C     0.43487   0.22554   0.44454   0.00000  Uiso   1.00
C491   C     0.21203   0.33505   0.49898   0.00000  Uiso   1.00
C492   C     0.28552   0.33622   0.49108   0.00000  Uiso   1.00
C493   C     0.26984   0.35354   0.49740   0.00000  Uiso   1.00
C494   C     0.28120   0.32603   0.36795   0.00000  Uiso   1.00
C495   C     0.28928   0.25800   0.50060   0.00000  Uiso   1.00
C496   C     0.24943   0.30490   0.49270   0.00000  Uiso   1.00
C497   C     0.24251   0.33717   0.36956   0.00000  Uiso   1.00
C498   C     0.28746   0.33689   0.45492   0.00000  Uiso   1.00
C499   C     0.25149   0.30955   0.44233   0.00000  Uiso   1.00
C500   C     0.29716   0.35569   0.36355   0.00000  Uiso   1.00
C501   C     0.30208   0.32756   0.37437   0.00000  Uiso   1.00
C502   C     0.24068   0.35863   0.35616   0.00000  Uiso   1.00
C503   C     0.30913   0.27295   0.49916   0.00000  Uiso   1.00
C504   C     0.30465   0.27138   0.44931   0.00000  Uiso   1.00
C505   C     0.26470   0.33386   0.38406   0.00000  Uiso   1.00
C506   C     0.30181   0.27819   0.41235   0.00000  Uiso   1.00
C507   C     0.30697   0.32077   0.39955   0.00000  Uiso   1.00
C508   C     0.24981   0.35515   0.48443   0.00000  Uiso   1.00
C509   C     0.26465   0.28686   0.44049   0.00000  Uiso   1.00
C510   C     0.30073   0.30112   0.43216   0.00000  Uiso   1.00
C511   C     0.32010   0.34466   0.36581   0.00000  Uiso   1.00
C512   C     0.28986   0.32855   0.33337   0.00000  Uiso   1.00
C513   C     0.31281   0.30641   0.36264   0.00000  Uiso   1.00
C514   C     0.30947   0.31242   0.34007   0.00000  Uiso   1.00
C515   C     0.29245   0.30683   0.41246   0.00000  Uiso   1.00
C516   C     0.25527   0.31755   0.47105   0.00000  Uiso   1.00
C517   C     0.26898   0.28835   0.48779   0.00000  Uiso   1.00
C518   C     0.22820   0.54056   0.41279   0.00000  Uiso   1.00
C519   C     0.28751   0.29013   0.45016   0.00000  Uiso   1.00
C520   C     0.21036   0.35156   0.45837   0.00000  Uiso   1.00
C521   C     0.28479   0.34180   0.35358   0.00000  Uiso   1.00
C522   C     0.28141   0.32296   0.47005   0.00000  Uiso   1.00
C523   C     0.31296   0.29741   0.48200   0.00000  Uiso   1.00
C524   C     0.28146   0.28702   0.40086   0.00000  Uiso   1.00
C525   C     0.22556   0.35628   0.50218   0.00000  Uiso   1.00
C526   C     0.24614   0.34262   0.46715   0.00000  Uiso   1.00
C527   C     0.28745   0.29813   0.47432   0.00000  Uiso   1.00
C528   C     0.23406   0.39035   0.33631   0.00000  Uiso   1.00
C529   C     0.21037   0.51085   0.49517   0.00000  Uiso   1.00
C530   C     0.29715   0.40338   0.34632   0.00000  Uiso   1.00
C531   C     0.22425   0.40964   0.47655   0.00000  Uiso   1.00
C532   C     0.21894   0.47331   0.45939   0.00000  Uiso   1.00
C533   C     0.20285   0.49179   0.46166   0.00000  Uiso   1.00
C534   C     0.25570   0.40089   0.32985   0.00000  Uiso   1.00
C535   C     0.25175   0.48928   0.33400   0.00000  Uiso   1.00
C536   C     0.21126   0.39471   0.43603   0.00000  Uiso   1.00
C537   C     0.20359   0.46595   0.41187   0.00000  Uiso   1.00
C538   C     0.22272   0.42973   0.41770   0.00000  Uiso   1.00
C539   C     0.22255   0.40566   0.35499   0.00000  Uiso   1.00
C540   C     0.17892   0.48284   0.36882   0.00000  Uiso   1.00
C541   C     0.27798   0.46276   0.33024   0.00000  Uiso   1.00
C542   C     0.22563   0.48369   0.34911   0.00000  Uiso   1.00
C543   C     0.24084   0.51671   0.36768   0.00000  Uiso   1.00
C544   C     0.19980   0.52068   0.36549   0.00000  Uiso   1.00
C545   C     0.26852   0.43993   0.34016   0.00000  Uiso   1.00
C546   C     0.22216   0.50112   0.39985   0.00000  Uiso   1.00
C547   C     0.24817   0.40180   0.46635   0.00000  Uiso   1.00
C548   C     0.15906   0.51011   0.40719   0.00000  Uiso   1.00
C549   C     0.21677   0.37356   0.47213   0.00000  Uiso   1.00
C550   C     0.24095   0.37228   0.46756   0.00000  Uiso   1.00
C551   C     0.24317   0.53911   0.35598   0.00000  Uiso   1.00
C552   C     0.21658   0.43530   0.47643   0.00000  Uiso   1.00
C553   C     0.20642   0.47020   0.49740   0.00000  Uiso   1.00
C554   C     0.19946   0.43270   0.49221   0.00000  Uiso   1.00
C555   C     0.19411   0.43295   0.39083   0.00000  Uiso   1.00
C556   C     0.21257   0.39525   0.46200   0.00000  Uiso   1.00
C557   C     0.19478   0.47190   0.38212   0.00000  Uiso   1.00
C558   C     0.23372   0.45841   0.38253   0.00000  Uiso   1.00
C559   C     0.19137   0.44304   0.44808   0.00000  Uiso   1.00
C560   C     0.19085   0.52597   0.38741   0.00000  Uiso   1.00
C561   C     0.18586   0.48880   0.44328   0.00000  Uiso   1.00
C562   C     0.25740   0.38542   0.40751   0.00000  Uiso   1.00
C563   C     0.21223   0.50822   0.42067   0.00000  Uiso   1.00
C564   C     0.17416   0.45127   0.39097   0.00000  Uiso   1.00
C565   C     0.18526   0.50972   0.40624   0.00000  Uiso   1.00
C566   C     0.31013   0.38322   0.35369   0.00000  Uiso   1.00
C567   C     0.21588   0.51415   0.46505   0.00000  Uiso   1.00
C568   C     0.28511   0.36969   0.38053   0.00000  Uiso   1.00
C569   C     0.24472   0.37621   0.37421   0.00000  Uiso   1.00
C570   C     0.27438   0.39202   0.34420   0.00000  Uiso   1.00
C571   C     0.25380   0.37283   0.44641   0.00000  Uiso   1.00
C572   C     0.18789   0.50199   0.35264   0.00000  Uiso   1.00
C573   C     0.22927   0.39723   0.37523   0.00000  Uiso   1.00
C574   C     0.22747   0.47972   0.43953   0.00000  Uiso   1.00
C575   C     0.21914   0.39629   0.49720   0.00000  Uiso   1.00
C576   C     0.24474   0.41660   0.41085   0.00000  Uiso   1.00
C577   C     0.26760   0.38599   0.36865   0.00000  Uiso   1.00
C578   C     0.16646   0.45559   0.41600   0.00000  Uiso   1.00
C579   C     0.20427   0.36861   0.40404   0.00000  Uiso   1.00
C580   C     0.21775   0.46786   0.36828   0.00000  Uiso   1.00
C581   C     0.18615   0.51538   0.49108   0.00000  Uiso   1.00
C582   C     0.19313   0.40890   0.40118   0.00000  Uiso   1.00
C583   C     0.25035   0.42626   0.33028   0.00000  Uiso   1.00
C584   C     0.18041   0.42335   0.43722   0.00000  Uiso   1.00
C585   C     0.20414   0.38859   0.38950   0.00000  Uiso   1.00
C586   C     0.20859   0.37437   0.49556   0.00000  Uiso   1.00
C587   C     0.21287   0.44682   0.40123   0.00000  Uiso   1.00
C588   C     0.24664   0.36847   0.39919   0.00000  Uiso   1.00
C589   C     0.21255   0.44744   0.45351   0.00000  Uiso   1.00
C590   C     0.21875   0.51562   0.37844   0.00000  Uiso   1.00
C591   C     0.20842   0.49410   0.33654   0.00000  Uiso   1.00
C592   C     0.24541   0.49268   0.35487   0.00000  Uiso   1.00
C593   C     0.19532   0.42859   0.36437   0.00000  Uiso   1.00
C594   C     0.18850   0.53416   0.43788   0.00000  Uiso   1.00
C595   C     0.20542   0.41319   0.42360   0.00000  Uiso   1.00
C596   C     0.15750   0.51834   0.45135   0.00000  Uiso   1.00
C597   C     0.19222   0.51077   0.42894   0.00000  Uiso   1.00
C598   C     0.24548   0.41632   0.38434   0.00000  Uiso   1.00
C599   C     0.23630   0.43097   0.35192   0.00000  Uiso   1.00
C600   C     0.20858   0.53379   0.45112   0.00000  Uiso   1.00
C601   C     0.22985   0.44753   0.44083   0.00000  Uiso   1.00
C602   C     0.20114   0.45472   0.33456   0.00000  Uiso   1.00
C603   C     0.22533   0.46384   0.42415   0.00000  Uiso   1.00
C604   C     0.21689   0.44771   0.35549   0.00000  Uiso   1.00
C605   C     0.24536   0.43738   0.37121   0.00000  Uiso   1.00
C606   C     0.17956   0.43192   0.47703   0.00000  Uiso   1.00
C607   C     0.27155   0.48410   0.34137   0.00000  Uiso   1.00
C608   C     0.24995   0.39466   0.42524   0.00000  Uiso   1.00
C609   C     0.26821   0.40602   0.38248   0.00000  Uiso   1.00
C610   C     0.20404   0.48608   0.40056   0.00000  Uiso   1.00
C611   C     0.16139   0.49827   0.46748   0.00000  Uiso   1.00
C612   C     0.16998   0.53493   0.45694   0.00000  Uiso   1.00
C613   C     0.17977   0.41385   0.45936   0.00000  Uiso   1.00
C614   C     0.23123   0.37971   0.42597   0.00000  Uiso   1.00
C615   C     0.18316   0.46866   0.48857   0.00000  Uiso   1.00
C616   C     0.18611   0.46428   0.43049   0.00000  Uiso   1.00
C617   C     0.17570   0.53687   0.48153   0.00000  Uiso   1.00
C618   C     0.17474   0.45625   0.46943   0.00000  Uiso   1.00
C619   C     0.16396   0.48371   0.45155   0.00000  Uiso   1.00
C620   C     0.18362   0.49364   0.47756   0.00000  Uiso   1.00
C621   C     0.39044   0.33201   0.31710   0.00000  Uiso   1.00
C622   C     0.39860   0.29957   0.28343   0.00000  Uiso   1.00
C623   C     0.37536   0.31241   0.28456   0.00000  Uiso   1.00
C624   C     0.47060   0.25312   0.32004   0.00000  Uiso   1.00
C625   C     0.41882   0.26710   0.31112   0.00000  Uiso   1.00
C626   C     0.42738   0.30438   0.31114   0.00000  Uiso   1.00
C627   C     0.46574   0.33315   0.27372   0.00000  Uiso   1.00
C628   C     0.43114   0.30758   0.26274   0.00000  Uiso   1.00
C629   C     0.44912   0.34983   0.26248   0.00000  Uiso   1.00
C630   C     0.48529   0.27507   0.32427   0.00000  Uiso   1.00
C631   C     0.38589   0.29288   0.32349   0.00000  Uiso   1.00
C632   C     0.48125   0.32382   0.22319   0.00000  Uiso   1.00
C633   C     0.39460   0.32268   0.24591   0.00000  Uiso   1.00
C634   C     0.40564   0.34484   0.25344   0.00000  Uiso   1.00
C635   C     0.38417   0.33413   0.29374   0.00000  Uiso   1.00
C636   C     0.44769   0.35079   0.21970   0.00000  Uiso   1.00
C637   C     0.47430   0.30832   0.25779   0.00000  Uiso   1.00
C638   C     0.40755   0.28780   0.30964   0.00000  Uiso   1.00
C639   C     0.40963   0.30334   0.26334   0.00000  Uiso   1.00
C640   C     0.36051   0.33459   0.31397   0.00000  Uiso   1.00
C641   C     0.49434   0.31668   0.31265   0.00000  Uiso   1.00
C642   C     0.43174   0.32026   0.28582   0.00000  Uiso   1.00
C643   C     0.44324   0.32046   0.24513   0.00000  Uiso   1.00
C644   C     0.44609   0.28565   0.30929   0.00000  Uiso   1.00
C645   C     0.37071   0.35389   0.26022   0.00000  Uiso   1.00
C646   C     0.43471   0.26015   0.29772   0.00000  Uiso   1.00
C647   C     0.33026   0.33884   0.27311   0.00000  Uiso   1.00
C648   C     0.37014   0.33058   0.24821   0.00000  Uiso   1.00
C649   C     0.46436   0.28867   0.27062   0.00000  Uiso   1.00
C650   C     0.38949   0.35246   0.27811   0.00000  Uiso   1.00
C651   C     0.45545   0.32293   0.29390   0.00000  Uiso   1.00
C652   C     0.42792   0.34819   0.26660   0.00000  Uiso   1.00
C653   C     0.48741   0.29370   0.30514   0.00000  Uiso   1.00
C654   C     0.48381   0.34370   0.23544   0.00000  Uiso   1.00
C655   C     0.33607   0.31698   0.28906   0.00000  Uiso   1.00
C656   C     0.46026   0.35508   0.23949   0.00000  Uiso   1.00
C657   C     0.35192   0.35925   0.27735   0.00000  Uiso   1.00
C658   C     0.48677   0.34508   0.28269   0.00000  Uiso   1.00
C659   C     0.41860   0.34251   0.28478   0.00000  Uiso   1.00
C660   C     0.36424   0.29461   0.31069   0.00000  Uiso   1.00
C661   C     0.35869   0.35601   0.30250   0.00000  Uiso   1.00
C662   C     0.46290   0.29702   0.29513   0.00000  Uiso   1.00
C663   C     0.35912   0.31773   0.29755   0.00000  Uiso   1.00
C664   C     0.49382   0.39970   0.24894   0.00000  Uiso   1.00
C665   C     0.37370   0.37538   0.24667   0.00000  Uiso   1.00
C666   C     0.47931   0.38144   0.21449   0.00000  Uiso   1.00
C667   C     0.32214   0.41296   0.28577   0.00000  Uiso   1.00
C668   C     0.35084   0.37897   0.23271   0.00000  Uiso   1.00
C669   C     0.33829   0.39802   0.28471   0.00000  Uiso   1.00
C670   C     0.43124   0.49077   0.15905   0.00000  Uiso   1.00
C671   C     0.38753   0.38958   0.25406   0.00000  Uiso   1.00
C672   C     0.46614   0.42075   0.22508   0.00000  Uiso   1.00
C673   C     0.38398   0.46849   0.23459   0.00000  Uiso   1.00
C674   C     0.40078   0.43065   0.23842   0.00000  Uiso   1.00
C675   C     0.45968   0.50268   0.19066   0.00000  Uiso   1.00
C676   C     0.33266   0.52757   0.21363   0.00000  Uiso   1.00
C677   C     0.35497   0.48517   0.18842   0.00000  Uiso   1.00
C678   C     0.47399   0.39817   0.23209   0.00000  Uiso   1.00
C679   C     0.48923   0.43827   0.19847   0.00000  Uiso   1.00
C680   C     0.40110   0.48967   0.17722   0.00000  Uiso   1.00
C681   C     0.33250   0.37573   0.27326   0.00000  Uiso   1.00
C682   C     0.41960   0.51265   0.19058   0.00000  Uiso   1.00
C683   C     0.37648   0.52092   0.18490   0.00000  Uiso   1.00
C684   C     0.39855   0.50105   0.21619   0.00000  Uiso   1.00
C685   C     0.33777   0.50868   0.22857   0.00000  Uiso   1.00
C686   C     0.47593   0.53535   0.18520   0.00000  Uiso   1.00
C687   C     0.39306   0.37545   0.29127   0.00000  Uiso   1.00
C688   C     0.48057   0.50329   0.19855   0.00000  Uiso   1.00
C689   C     0.41403   0.53430   0.18107   0.00000  Uiso   1.00
C690   C     0.42172   0.47083   0.23158   0.00000  Uiso   1.00
C691   C     0.32159   0.41048   0.30738   0.00000  Uiso   1.00
C692   C     0.36746   0.42985   0.21105   0.00000  Uiso   1.00
C693   C     0.33263   0.39257   0.30630   0.00000  Uiso   1.00
C694   C     0.38205   0.39380   0.27863   0.00000  Uiso   1.00
C695   C     0.43650   0.51206   0.20946   0.00000  Uiso   1.00
C696   C     0.36902   0.47153   0.20288   0.00000  Uiso   1.00
C697   C     0.48593   0.50308   0.22093   0.00000  Uiso   1.00
C698   C     0.40899   0.45896   0.21119   0.00000  Uiso   1.00
C699   C     0.36860   0.52857   0.20954   0.00000  Uiso   1.00
C700   C     0.42544   0.49737   0.22946   0.00000  Uiso   1.00
C701   C     0.43683   0.38850   0.22700   0.00000  Uiso   1.00
C702   C     0.39400   0.50644   0.23946   0.00000  Uiso   1.00
C703   C     0.44342   0.43169   0.24157   0.00000  Uiso   1.00
C704   C     0.35640   0.45170   0.21449   0.00000  Uiso   1.00
C705   C     0.36453   0.50566   0.22925   0.00000  Uiso   1.00
C706   C     0.44520   0.53692   0.21712   0.00000  Uiso   1.00
C707   C     0.46379   0.36765   0.20064   0.00000  Uiso   1.00
C708   C     0.42515   0.37577   0.19837   0.00000  Uiso   1.00
C709   C     0.32545   0.48766   0.21951   0.00000  Uiso   1.00
C710   C     0.42977   0.37265   0.26882   0.00000  Uiso   1.00
C711   C     0.44269   0.49033   0.18819   0.00000  Uiso   1.00
C712   C     0.32058   0.37004   0.30482   0.00000  Uiso   1.00
C713   C     0.48360   0.41481   0.18719   0.00000  Uiso   1.00
C714   C     0.49215   0.52262   0.19323   0.00000  Uiso   1.00
C715   C     0.41154   0.39765   0.19793   0.00000  Uiso   1.00
C716   C     0.46566   0.50261   0.16113   0.00000  Uiso   1.00
C717   C     0.34924   0.40247   0.22410   0.00000  Uiso   1.00
C718   C     0.47582   0.46847   0.16102   0.00000  Uiso   1.00
C719   C     0.42291   0.41787   0.23354   0.00000  Uiso   1.00
C720   C     0.34158   0.43488   0.25212   0.00000  Uiso   1.00
C721   C     0.49354   0.36473   0.22757   0.00000  Uiso   1.00
C722   C     0.32638   0.43521   0.27377   0.00000  Uiso   1.00
C723   C     0.34564   0.45608   0.23815   0.00000  Uiso   1.00
C724   C     0.48531   0.43446   0.22363   0.00000  Uiso   1.00
C725   C     0.38275   0.36923   0.21863   0.00000  Uiso   1.00
C726   C     0.39624   0.46632   0.19113   0.00000  Uiso   1.00
C727   C     0.33260   0.47808   0.19689   0.00000  Uiso   1.00
C728   C     0.48875   0.48641   0.18828   0.00000  Uiso   1.00
C729   C     0.36949   0.41038   0.22398   0.00000  Uiso   1.00
C730   C     0.36402   0.42404   0.25935   0.00000  Uiso   1.00
C731   C     0.44890   0.44057   0.18657   0.00000  Uiso   1.00
C732   C     0.49592   0.39623   0.19428   0.00000  Uiso   1.00
C733   C     0.48465   0.48725   0.16535   0.00000  Uiso   1.00
C734   C     0.36377   0.37091   0.31939   0.00000  Uiso   1.00
C735   C     0.38910   0.44803   0.22168   0.00000  Uiso   1.00
C736   C     0.31910   0.48648   0.25240   0.00000  Uiso   1.00
C737   C     0.42695   0.36675   0.22153   0.00000  Uiso   1.00
C738   C     0.32802   0.41997   0.23633   0.00000  Uiso   1.00
C739   C     0.32243   0.51273   0.24871   0.00000  Uiso   1.00
C740   C     0.39781   0.50861   0.19186   0.00000  Uiso   1.00
C741   C     0.42285   0.49343   0.17982   0.00000  Uiso   1.00
C742   C     0.32757   0.37860   0.24661   0.00000  Uiso   1.00
C743   C     0.38208   0.41349   0.24481   0.00000  Uiso   1.00
C744   C     0.32750   0.51834   0.27366   0.00000  Uiso   1.00
C745   C     0.37078   0.51073   0.24971   0.00000  Uiso   1.00
C746   C     0.42514   0.41613   0.20711   0.00000  Uiso   1.00
C747   C     0.45850   0.42177   0.20295   0.00000  Uiso   1.00
C748   C     0.40073   0.36518   0.23682   0.00000  Uiso   1.00
C749   C     0.46399   0.51881   0.17719   0.00000  Uiso   1.00
C750   C     0.32476   0.46994   0.23558   0.00000  Uiso   1.00
C751   C     0.47787   0.46304   0.18566   0.00000  Uiso   1.00
C752   C     0.42421   0.43795   0.19496   0.00000  Uiso   1.00
C753   C     0.46104   0.46503   0.22414   0.00000  Uiso   1.00
C754   C     0.45129   0.48611   0.16660   0.00000  Uiso   1.00
C755   C     0.42661   0.39979   0.24600   0.00000  Uiso   1.00
C756   C     0.44132   0.40230   0.20461   0.00000  Uiso   1.00
C757   C     0.37918   0.48881   0.22014   0.00000  Uiso   1.00
C758   C     0.45843   0.38036   0.23627   0.00000  Uiso   1.00
C759   C     0.36122   0.40993   0.28070   0.00000  Uiso   1.00
C760   C     0.45581   0.46437   0.19795   0.00000  Uiso   1.00
C761   C     0.40865   0.38170   0.24862   0.00000  Uiso   1.00
C762   C     0.36524   0.46761   0.25219   0.00000  Uiso   1.00
C763   C     0.45036   0.38236   0.26870   0.00000  Uiso   1.00
C764   C     0.33350   0.47896   0.27009   0.00000  Uiso   1.00
C765   C     0.33057   0.45825   0.28539   0.00000  Uiso   1.00
C766   C     0.30819   0.35933   0.32419   0.00000  Uiso   1.00
C767   C     0.28491   0.33863   0.31561   0.00000  Uiso   1.00
C768   C     0.26753   0.35311   0.32236   0.00000  Uiso   1.00
C769   C     0.31723   0.53885   0.23072   0.00000  Uiso   1.00
C770   C     0.31986   0.31744   0.30952   0.00000  Uiso   1.00
C771   C     0.49797   0.30776   0.25089   0.00000  Uiso   1.00
C772   C     0.30532   0.33894   0.30941   0.00000  Uiso   1.00
C773   C     0.30756   0.34645   0.28306   0.00000  Uiso   1.00
C774   C     0.31573   0.40027   0.24541   0.00000  Uiso   1.00
C775   C     0.20731   0.51392   0.31379   0.00000  Uiso   1.00
C776   C     0.28511   0.51829   0.31699   0.00000  Uiso   1.00
C777   C     0.26599   0.52804   0.32016   0.00000  Uiso   1.00
C778   C     0.31109   0.37053   0.28402   0.00000  Uiso   1.00
C779   C     0.29056   0.43320   0.32056   0.00000  Uiso   1.00
C780   C     0.23862   0.44660   0.31123   0.00000  Uiso   1.00
C781   C     0.24656   0.48255   0.30902   0.00000  Uiso   1.00
C782   C     0.27274   0.42600   0.30749   0.00000  Uiso   1.00
C783   C     0.28506   0.50852   0.26763   0.00000  Uiso   1.00
C784   C     0.25082   0.48507   0.26473   0.00000  Uiso   1.00
C785   C     0.26892   0.51792   0.25698   0.00000  Uiso   1.00
C786   C     0.20561   0.47362   0.32223   0.00000  Uiso   1.00
C787   C     0.29109   0.38626   0.28246   0.00000  Uiso   1.00
C788   C     0.30204   0.44833   0.26174   0.00000  Uiso   1.00
C789   C     0.28167   0.39172   0.31135   0.00000  Uiso   1.00
C790   C     0.30410   0.45476   0.23598   0.00000  Uiso   1.00
C791   C     0.30498   0.50001   0.22197   0.00000  Uiso   1.00
C792   C     0.24860   0.53156   0.30227   0.00000  Uiso   1.00
C793   C     0.26386   0.46389   0.25969   0.00000  Uiso   1.00
C794   C     0.29601   0.48819   0.25371   0.00000  Uiso   1.00
C795   C     0.22605   0.46925   0.30492   0.00000  Uiso   1.00
C796   C     0.27192   0.42783   0.26209   0.00000  Uiso   1.00
C797   C     0.28313   0.37089   0.32445   0.00000  Uiso   1.00
C798   C     0.30925   0.43349   0.22319   0.00000  Uiso   1.00
C799   C     0.29863   0.40961   0.32105   0.00000  Uiso   1.00
C800   C     0.29004   0.48335   0.23104   0.00000  Uiso   1.00
C801   C     0.26315   0.40546   0.30875   0.00000  Uiso   1.00
C802   C     0.25451   0.49213   0.29093   0.00000  Uiso   1.00
C803   C     0.26795   0.46815   0.30670   0.00000  Uiso   1.00
C804   C     0.29403   0.42670   0.27283   0.00000  Uiso   1.00
C805   C     0.26056   0.44430   0.29818   0.00000  Uiso   1.00
C806   C     0.30509   0.40541   0.27437   0.00000  Uiso   1.00
C807   C     0.28842   0.46904   0.26793   0.00000  Uiso   1.00
C808   C     0.27883   0.50115   0.29223   0.00000  Uiso   1.00
C809   C     0.24921   0.52695   0.26437   0.00000  Uiso   1.00
C810   C     0.30925   0.47009   0.30298   0.00000  Uiso   1.00
C811   C     0.22284   0.53594   0.31845   0.00000  Uiso   1.00
C812   C     0.30703   0.52092   0.23576   0.00000  Uiso   1.00
C813   C     0.28200   0.52964   0.24148   0.00000  Uiso   1.00
C814   C     0.30692   0.52072   0.28530   0.00000  Uiso   1.00
C815   C     0.23904   0.50887   0.29616   0.00000  Uiso   1.00
C816   C     0.25579   0.44409   0.27304   0.00000  Uiso   1.00
C817   C     0.28719   0.47748   0.29322   0.00000  Uiso   1.00
C818   C     0.76833   0.57166   0.33678   0.00000  Uiso   1.00
C819   C     0.74296   0.69094   0.49389   0.00000  Uiso   1.00
C820   C     0.81894   0.69383   0.49001   0.00000  Uiso   1.00
C821   C     0.78503   0.58410   0.32707   0.00000  Uiso   1.00
C822   C     0.80248   0.70999   0.49681   0.00000  Uiso   1.00
C823   C     0.82023   0.59989   0.40261   0.00000  Uiso   1.00
C824   C     0.75669   0.58679   0.35137   0.00000  Uiso   1.00
C825   C     0.82281   0.61202   0.49741   0.00000  Uiso   1.00
C826   C     0.70253   0.68553   0.33596   0.00000  Uiso   1.00
C827   C     0.79711   0.63534   0.41726   0.00000  Uiso   1.00
C828   C     0.83009   0.57732   0.40989   0.00000  Uiso   1.00
C829   C     0.75754   0.66500   0.35630   0.00000  Uiso   1.00
C830   C     0.77364   0.62156   0.49019   0.00000  Uiso   1.00
C831   C     0.78440   0.66175   0.49147   0.00000  Uiso   1.00
C832   C     0.77570   0.68859   0.36761   0.00000  Uiso   1.00
C833   C     0.73262   0.69901   0.36697   0.00000  Uiso   1.00
C834   C     0.80943   0.60492   0.47636   0.00000  Uiso   1.00
C835   C     0.80454   0.61948   0.33861   0.00000  Uiso   1.00
C836   C     0.75813   0.67543   0.41005   0.00000  Uiso   1.00
C837   C     0.78827   0.66791   0.44495   0.00000  Uiso   1.00
C838   C     0.78083   0.58024   0.46730   0.00000  Uiso   1.00
C839   C     0.68804   0.70462   0.34498   0.00000  Uiso   1.00
C840   C     0.77307   0.71072   0.35813   0.00000  Uiso   1.00
C841   C     0.77702   0.64661   0.40662   0.00000  Uiso   1.00
C842   C     0.80560   0.69639   0.43555   0.00000  Uiso   1.00
C843   C     0.84115   0.63024   0.49902   0.00000  Uiso   1.00
C844   C     0.68686   0.66997   0.33087   0.00000  Uiso   1.00
C845   C     0.82582   0.56534   0.46176   0.00000  Uiso   1.00
C846   C     0.83746   0.62514   0.43910   0.00000  Uiso   1.00
C847   C     0.81909   0.57005   0.48646   0.00000  Uiso   1.00
C848   C     0.79329   0.69078   0.38441   0.00000  Uiso   1.00
C849   C     0.76250   0.54216   0.34072   0.00000  Uiso   1.00
C850   C     0.76616   0.63393   0.38700   0.00000  Uiso   1.00
C851   C     0.72584   0.70691   0.39000   0.00000  Uiso   1.00
C852   C     0.78106   0.71321   0.48511   0.00000  Uiso   1.00
C853   C     0.78085   0.67150   0.40380   0.00000  Uiso   1.00
C854   C     0.79189   0.56096   0.41324   0.00000  Uiso   1.00
C855   C     0.75115   0.68778   0.43070   0.00000  Uiso   1.00
C856   C     0.76459   0.70919   0.43165   0.00000  Uiso   1.00
C857   C     0.80003   0.61002   0.41684   0.00000  Uiso   1.00
C858   C     0.72253   0.68832   0.40576   0.00000  Uiso   1.00
C859   C     0.74759   0.69217   0.46809   0.00000  Uiso   1.00
C860   C     0.81679   0.54723   0.38253   0.00000  Uiso   1.00
C861   C     0.79803   0.64366   0.44037   0.00000  Uiso   1.00
C862   C     0.78031   0.55354   0.37507   0.00000  Uiso   1.00
C863   C     0.76628   0.64463   0.49353   0.00000  Uiso   1.00
C864   C     0.81144   0.56502   0.34468   0.00000  Uiso   1.00
C865   C     0.80225   0.60515   0.44317   0.00000  Uiso   1.00
C866   C     0.78562   0.55204   0.44447   0.00000  Uiso   1.00
C867   C     0.72138   0.68038   0.35390   0.00000  Uiso   1.00
C868   C     0.79788   0.66467   0.36560   0.00000  Uiso   1.00
C869   C     0.80623   0.55348   0.50083   0.00000  Uiso   1.00
C870   C     0.76023   0.57600   0.37533   0.00000  Uiso   1.00
C871   C     0.76294   0.66258   0.44340   0.00000  Uiso   1.00
C872   C     0.77894   0.59552   0.41020   0.00000  Uiso   1.00
C873   C     0.80319   0.55970   0.36821   0.00000  Uiso   1.00
C874   C     0.74960   0.64595   0.37100   0.00000  Uiso   1.00
C875   C     0.70249   0.64854   0.33117   0.00000  Uiso   1.00
C876   C     0.78325   0.61010   0.33082   0.00000  Uiso   1.00
C877   C     0.80282   0.62087   0.36303   0.00000  Uiso   1.00
C878   C     0.83520   0.58936   0.50298   0.00000  Uiso   1.00
C879   C     0.78460   0.54239   0.39743   0.00000  Uiso   1.00
C880   C     0.75310   0.68583   0.36763   0.00000  Uiso   1.00
C881   C     0.73351   0.59101   0.33252   0.00000  Uiso   1.00
C882   C     0.79788   0.58282   0.48520   0.00000  Uiso   1.00
C883   C     0.78916   0.67380   0.46914   0.00000  Uiso   1.00
C884   C     0.80236   0.68104   0.41406   0.00000  Uiso   1.00
C885   C     0.74369   0.67123   0.33574   0.00000  Uiso   1.00
C886   C     0.81037   0.63627   0.48458   0.00000  Uiso   1.00
C887   C     0.77918   0.66881   0.35675   0.00000  Uiso   1.00
C888   C     0.82637   0.60662   0.45080   0.00000  Uiso   1.00
C889   C     0.72120   0.71321   0.44062   0.00000  Uiso   1.00
C890   C     0.79429   0.61955   0.47678   0.00000  Uiso   1.00
C891   C     0.77823   0.59281   0.38404   0.00000  Uiso   1.00
C892   C     0.81540   0.59877   0.37933   0.00000  Uiso   1.00
C893   C     0.84068   0.58446   0.45203   0.00000  Uiso   1.00
C894   C     0.76847   0.61059   0.35246   0.00000  Uiso   1.00
C895   C     0.82243   0.64905   0.44945   0.00000  Uiso   1.00
C896   C     0.74253   0.71147   0.45214   0.00000  Uiso   1.00
C897   C     0.73379   0.63477   0.33688   0.00000  Uiso   1.00
C898   C     0.81156   0.67810   0.47224   0.00000  Uiso   1.00
C899   C     0.78293   0.70347   0.44625   0.00000  Uiso   1.00
C900   C     0.75916   0.64823   0.42282   0.00000  Uiso   1.00
C901   C     0.74786   0.62560   0.35680   0.00000  Uiso   1.00
C902   C     0.77834   0.61611   0.37228   0.00000  Uiso   1.00
C903   C     0.81540   0.64143   0.40444   0.00000  Uiso   1.00
C904   C     0.76033   0.71542   0.49720   0.00000  Uiso   1.00
C905   C     0.78049   0.57552   0.42561   0.00000  Uiso   1.00
C906   C     0.79824   0.58185   0.38199   0.00000  Uiso   1.00
C907   C     0.73967   0.66399   0.39930   0.00000  Uiso   1.00
C908   C     0.81688   0.55720   0.41926   0.00000  Uiso   1.00
C909   C     0.80963   0.64209   0.37487   0.00000  Uiso   1.00
C910   C     0.77461   0.69357   0.47001   0.00000  Uiso   1.00
C911   C     0.79224   0.62348   0.45319   0.00000  Uiso   1.00
C912   C     0.82124   0.65330   0.47069   0.00000  Uiso   1.00
C913   C     0.80674   0.56299   0.44205   0.00000  Uiso   1.00
C914   C     0.79094   0.58161   0.44454   0.00000  Uiso   1.00
C915   C     0.72470   0.73141   0.42373   0.00000  Uiso   1.00
C916   C     0.75792   0.76847   0.47240   0.00000  Uiso   1.00
C917   C     0.68094   0.76887   0.46446   0.00000  Uiso   1.00
C918   C     0.70454   0.73700   0.41028   0.00000  Uiso   1.00
C919   C     0.69596   0.75267   0.46508   0.00000  Uiso   1.00
C920   C     0.74469   0.75028   0.43596   0.00000  Uiso   1.00
C921   C     0.74262   0.71902   0.35865   0.00000  Uiso   1.00
C922   C     0.77970   0.75499   0.46698   0.00000  Uiso   1.00
C923   C     0.74771   0.73094   0.46931   0.00000  Uiso   1.00
C924   C     0.77380   0.73046   0.46909   0.00000  Uiso   1.00
C925   C     0.67810   0.76427   0.48718   0.00000  Uiso   1.00
C926   C     0.73406   0.79049   0.49466   0.00000  Uiso   1.00
C927   C     0.72443   0.78591   0.38812   0.00000  Uiso   1.00
C928   C     0.74013   0.75412   0.46001   0.00000  Uiso   1.00
C929   C     0.72384   0.80267   0.44628   0.00000  Uiso   1.00
C930   C     0.73060   0.73808   0.36649   0.00000  Uiso   1.00
C931   C     0.78215   0.72983   0.44550   0.00000  Uiso   1.00
C932   C     0.70052   0.76447   0.39828   0.00000  Uiso   1.00
C933   C     0.75164   0.75323   0.49821   0.00000  Uiso   1.00
C934   C     0.69734   0.79175   0.43163   0.00000  Uiso   1.00
C935   C     0.68013   0.79672   0.45066   0.00000  Uiso   1.00
C936   C     0.70081   0.81102   0.41637   0.00000  Uiso   1.00
C937   C     0.74198   0.72678   0.40603   0.00000  Uiso   1.00
C938   C     0.72489   0.76405   0.39883   0.00000  Uiso   1.00
C939   C     0.71835   0.78024   0.43978   0.00000  Uiso   1.00
C940   C     0.72026   0.72469   0.50095   0.00000  Uiso   1.00
C941   C     0.69040   0.80413   0.37222   0.00000  Uiso   1.00
C942   C     0.74017   0.74636   0.38821   0.00000  Uiso   1.00
C943   C     0.74323   0.73102   0.49261   0.00000  Uiso   1.00
C944   C     0.49924   0.85131   0.48544   0.00000  Uiso   1.00
C945   C     0.68544   0.77750   0.41457   0.00000  Uiso   1.00
C946   C     0.69537   0.77777   0.49505   0.00000  Uiso   1.00
C947   C     0.73589   0.76970   0.42228   0.00000  Uiso   1.00
C948   C     0.76618   0.72360   0.41268   0.00000  Uiso   1.00
C949   C     0.68061   0.82841   0.41933   0.00000  Uiso   1.00
C950   C     0.71474   0.78554   0.48123   0.00000  Uiso   1.00
C951   C     0.69391   0.75765   0.37407   0.00000  Uiso   1.00
C952   C     0.71665   0.76505   0.45928   0.00000  Uiso   1.00
C953   C     0.76721   0.73985   0.42911   0.00000  Uiso   1.00
C954   C     0.71515   0.80769   0.46855   0.00000  Uiso   1.00
C955   C     0.69084   0.81650   0.46473   0.00000  Uiso   1.00
C956   C     0.67264   0.75714   0.42577   0.00000  Uiso   1.00
C957   C     0.56644   0.86692   0.49517   0.00000  Uiso   1.00
C958   C     0.65321   0.75944   0.34632   0.00000  Uiso   1.00
C959   C     0.57501   0.82938   0.45939   0.00000  Uiso   1.00
C960   C     0.55891   0.84786   0.46166   0.00000  Uiso   1.00
C961   C     0.53172   0.78106   0.35200   0.00000  Uiso   1.00
C962   C     0.61177   0.75696   0.32985   0.00000  Uiso   1.00
C963   C     0.53798   0.81971   0.34515   0.00000  Uiso   1.00
C964   C     0.64360   0.77800   0.40270   0.00000  Uiso   1.00
C965   C     0.55966   0.82202   0.41187   0.00000  Uiso   1.00
C966   C     0.64608   0.78862   0.49865   0.00000  Uiso   1.00
C967   C     0.62224   0.81424   0.41337   0.00000  Uiso   1.00
C968   C     0.53499   0.83890   0.36882   0.00000  Uiso   1.00
C969   C     0.63404   0.81882   0.33024   0.00000  Uiso   1.00
C970   C     0.66711   0.79678   0.37056   0.00000  Uiso   1.00
C971   C     0.58170   0.83975   0.34911   0.00000  Uiso   1.00
C972   C     0.51953   0.80288   0.34954   0.00000  Uiso   1.00
C973   C     0.60476   0.83878   0.49462   0.00000  Uiso   1.00
C974   C     0.62459   0.79600   0.34016   0.00000  Uiso   1.00
C975   C     0.57823   0.85718   0.39985   0.00000  Uiso   1.00
C976   C     0.60639   0.84073   0.44076   0.00000  Uiso   1.00
C977   C     0.51513   0.86618   0.40719   0.00000  Uiso   1.00
C978   C     0.59847   0.82469   0.40561   0.00000  Uiso   1.00
C979   C     0.66224   0.80860   0.49909   0.00000  Uiso   1.00
C980   C     0.56249   0.82626   0.49740   0.00000  Uiso   1.00
C981   C     0.50869   0.84757   0.33074   0.00000  Uiso   1.00
C982   C     0.66043   0.80253   0.44281   0.00000  Uiso   1.00
C983   C     0.66114   0.81261   0.41438   0.00000  Uiso   1.00
C984   C     0.55084   0.82797   0.38212   0.00000  Uiso   1.00
C985   C     0.58978   0.81448   0.38253   0.00000  Uiso   1.00
C986   C     0.54193   0.84486   0.44328   0.00000  Uiso   1.00
C987   C     0.60440   0.85386   0.40105   0.00000  Uiso   1.00
C988   C     0.56830   0.86428   0.42067   0.00000  Uiso   1.00
C989   C     0.62464   0.79028   0.41624   0.00000  Uiso   1.00
C990   C     0.53023   0.80734   0.39097   0.00000  Uiso   1.00
C991   C     0.54132   0.86579   0.40624   0.00000  Uiso   1.00
C992   C     0.66620   0.73929   0.35369   0.00000  Uiso   1.00
C993   C     0.57195   0.87022   0.46505   0.00000  Uiso   1.00
C994   C     0.62189   0.81788   0.43836   0.00000  Uiso   1.00
C995   C     0.65592   0.84177   0.43042   0.00000  Uiso   1.00
C996   C     0.58414   0.82478   0.49736   0.00000  Uiso   1.00
C997   C     0.63045   0.74809   0.34420   0.00000  Uiso   1.00
C998   C     0.50328   0.84650   0.39786   0.00000  Uiso   1.00
C999   C     0.54396   0.85805   0.35264   0.00000  Uiso   1.00
C1000  C     0.61885   0.84031   0.36553   0.00000  Uiso   1.00
C1001  C     0.65833   0.77374   0.36620   0.00000  Uiso   1.00
C1002  C     0.58354   0.83579   0.43953   0.00000  Uiso   1.00
C1003  C     0.52252   0.81166   0.41600   0.00000  Uiso   1.00
C1004  C     0.66449   0.78935   0.40341   0.00000  Uiso   1.00
C1005  C     0.57382   0.82393   0.36828   0.00000  Uiso   1.00
C1006  C     0.51095   0.83155   0.37275   0.00000  Uiso   1.00
C1007  C     0.54221   0.87145   0.49108   0.00000  Uiso   1.00
C1008  C     0.52420   0.82555   0.33008   0.00000  Uiso   1.00
C1009  C     0.60641   0.78233   0.33028   0.00000  Uiso   1.00
C1010  C     0.62685   0.79749   0.36612   0.00000  Uiso   1.00
C1011  C     0.67025   0.75263   0.37382   0.00000  Uiso   1.00
C1012  C     0.50946   0.80467   0.33001   0.00000  Uiso   1.00
C1013  C     0.51163   0.80552   0.37318   0.00000  Uiso   1.00
C1014  C     0.56893   0.80288   0.40123   0.00000  Uiso   1.00
C1015  C     0.50117   0.84175   0.43154   0.00000  Uiso   1.00
C1016  C     0.64017   0.84694   0.41240   0.00000  Uiso   1.00
C1017  C     0.50206   0.86630   0.42798   0.00000  Uiso   1.00
C1018  C     0.55824   0.77093   0.33391   0.00000  Uiso   1.00
C1019  C     0.61088   0.84832   0.46635   0.00000  Uiso   1.00
C1020  C     0.61804   0.85574   0.42276   0.00000  Uiso   1.00
C1021  C     0.62152   0.82462   0.48406   0.00000  Uiso   1.00
C1022  C     0.55139   0.78465   0.36437   0.00000  Uiso   1.00
C1023  C     0.64611   0.78497   0.45169   0.00000  Uiso   1.00
C1024  C     0.61637   0.80081   0.47621   0.00000  Uiso   1.00
C1025  C     0.51356   0.87440   0.45135   0.00000  Uiso   1.00
C1026  C     0.54829   0.86683   0.42894   0.00000  Uiso   1.00
C1027  C     0.63831   0.77890   0.37953   0.00000  Uiso   1.00
C1028  C     0.59236   0.78704   0.35192   0.00000  Uiso   1.00
C1029  C     0.64673   0.82375   0.44526   0.00000  Uiso   1.00
C1030  C     0.50175   0.82683   0.41605   0.00000  Uiso   1.00
C1031  C     0.65161   0.81588   0.36289   0.00000  Uiso   1.00
C1032  C     0.55720   0.81079   0.33456   0.00000  Uiso   1.00
C1033  C     0.63552   0.85548   0.46980   0.00000  Uiso   1.00
C1034  C     0.58140   0.81990   0.42415   0.00000  Uiso   1.00
C1035  C     0.57296   0.80377   0.35549   0.00000  Uiso   1.00
C1036  C     0.60143   0.79345   0.37121   0.00000  Uiso   1.00
C1037  C     0.66737   0.82628   0.48074   0.00000  Uiso   1.00
C1038  C     0.64163   0.82386   0.40231   0.00000  Uiso   1.00
C1039  C     0.58100   0.88681   0.49765   0.00000  Uiso   1.00
C1040  C     0.56010   0.84214   0.40056   0.00000  Uiso   1.00
C1041  C     0.51745   0.85434   0.46748   0.00000  Uiso   1.00
C1042  C     0.52605   0.89100   0.45694   0.00000  Uiso   1.00
C1043  C     0.63117   0.82003   0.37414   0.00000  Uiso   1.00
C1044  C     0.59824   0.87093   0.46775   0.00000  Uiso   1.00
C1045  C     0.53922   0.82473   0.48857   0.00000  Uiso   1.00
C1046  C     0.54218   0.82035   0.43049   0.00000  Uiso   1.00
C1047  C     0.53177   0.89293   0.48153   0.00000  Uiso   1.00
C1048  C     0.64620   0.83119   0.46802   0.00000  Uiso   1.00
C1049  C     0.52003   0.83977   0.45155   0.00000  Uiso   1.00
C1050  C     0.53969   0.84971   0.47756   0.00000  Uiso   1.00
C1051  C     0.72475   0.55425   0.24812   0.00000  Uiso   1.00
C1052  C     0.74650   0.68807   0.31710   0.00000  Uiso   1.00
C1053  C     0.75635   0.58793   0.29426   0.00000  Uiso   1.00
C1054  C     0.73143   0.66848   0.28456   0.00000  Uiso   1.00
C1055  C     0.68097   0.59229   0.28445   0.00000  Uiso   1.00
C1056  C     0.70888   0.55958   0.23193   0.00000  Uiso   1.00
C1057  C     0.69389   0.57502   0.28466   0.00000  Uiso   1.00
C1058  C     0.74296   0.57210   0.25462   0.00000  Uiso   1.00
C1059  C     0.77488   0.62316   0.31112   0.00000  Uiso   1.00
C1060  C     0.69066   0.55528   0.26852   0.00000  Uiso   1.00
C1061  C     0.78077   0.57772   0.28988   0.00000  Uiso   1.00
C1062  C     0.74686   0.55589   0.29232   0.00000  Uiso   1.00
C1063  C     0.77398   0.55398   0.29061   0.00000  Uiso   1.00
C1064  C     0.75266   0.61236   0.30170   0.00000  Uiso   1.00
C1065  C     0.74196   0.64894   0.32349   0.00000  Uiso   1.00
C1066  C     0.73247   0.61147   0.31754   0.00000  Uiso   1.00
C1067  C     0.73792   0.57495   0.28015   0.00000  Uiso   1.00
C1068  C     0.72738   0.62658   0.27358   0.00000  Uiso   1.00
C1069  C     0.71587   0.66760   0.26530   0.00000  Uiso   1.00
C1070  C     0.74024   0.69020   0.29374   0.00000  Uiso   1.00
C1071  C     0.76362   0.64387   0.30964   0.00000  Uiso   1.00
C1072  C     0.70249   0.58371   0.22292   0.00000  Uiso   1.00
C1073  C     0.74985   0.57485   0.32066   0.00000  Uiso   1.00
C1074  C     0.69801   0.61266   0.25257   0.00000  Uiso   1.00
C1075  C     0.68052   0.61579   0.27249   0.00000  Uiso   1.00
C1076  C     0.69954   0.63390   0.23955   0.00000  Uiso   1.00
C1077  C     0.71658   0.69065   0.31397   0.00000  Uiso   1.00
C1078  C     0.71958   0.60492   0.26300   0.00000  Uiso   1.00
C1079  C     0.71812   0.54761   0.31933   0.00000  Uiso   1.00
C1080  C     0.74180   0.55175   0.31495   0.00000  Uiso   1.00
C1081  C     0.67647   0.66614   0.25362   0.00000  Uiso   1.00
C1082  C     0.75184   0.63223   0.27831   0.00000  Uiso   1.00
C1083  C     0.68579   0.59819   0.23672   0.00000  Uiso   1.00
C1084  C     0.67988   0.68948   0.24881   0.00000  Uiso   1.00
C1085  C     0.68604   0.55686   0.24418   0.00000  Uiso   1.00
C1086  C     0.68633   0.69491   0.27311   0.00000  Uiso   1.00
C1087  C     0.67869   0.65045   0.23850   0.00000  Uiso   1.00
C1088  C     0.71522   0.60969   0.30141   0.00000  Uiso   1.00
C1089  C     0.69213   0.67305   0.28906   0.00000  Uiso   1.00
C1090  C     0.70799   0.71531   0.27735   0.00000  Uiso   1.00
C1091  C     0.71610   0.58714   0.28152   0.00000  Uiso   1.00
C1092  C     0.72031   0.65067   0.31069   0.00000  Uiso   1.00
C1093  C     0.71976   0.64330   0.25455   0.00000  Uiso   1.00
C1094  C     0.71476   0.71207   0.30250   0.00000  Uiso   1.00
C1095  C     0.71186   0.63063   0.29453   0.00000  Uiso   1.00
C1096  C     0.69428   0.65913   0.27133   0.00000  Uiso   1.00
C1097  C     0.68820   0.63847   0.28534   0.00000  Uiso   1.00
C1098  C     0.71519   0.67380   0.29755   0.00000  Uiso   1.00
C1099  C     0.68857   0.73180   0.27326   0.00000  Uiso   1.00
C1100  C     0.67765   0.76655   0.30738   0.00000  Uiso   1.00
C1101  C     0.68870   0.74864   0.30630   0.00000  Uiso   1.00
C1102  C     0.67664   0.72610   0.30482   0.00000  Uiso   1.00
C1103  C     0.71983   0.72698   0.31939   0.00000  Uiso   1.00
C1104  C     0.66425   0.71540   0.32419   0.00000  Uiso   1.00
C1105  C     0.67260   0.57812   0.24728   0.00000  Uiso   1.00
C1106  C     0.56112   0.59007   0.17722   0.00000  Uiso   1.00
C1107  C     0.52824   0.54318   0.20988   0.00000  Uiso   1.00
C1108  C     0.53192   0.59781   0.17911   0.00000  Uiso   1.00
C1109  C     0.65713   0.56117   0.21415   0.00000  Uiso   1.00
C1110  C     0.53397   0.64004   0.16791   0.00000  Uiso   1.00
C1111  C     0.64381   0.60028   0.22330   0.00000  Uiso   1.00
C1112  C     0.53185   0.58829   0.15481   0.00000  Uiso   1.00
C1113  C     0.56251   0.65111   0.24016   0.00000  Uiso   1.00
C1114  C     0.58115   0.60784   0.23900   0.00000  Uiso   1.00
C1115  C     0.58330   0.58595   0.17396   0.00000  Uiso   1.00
C1116  C     0.51049   0.70749   0.21020   0.00000  Uiso   1.00
C1117  C     0.55870   0.54437   0.17197   0.00000  Uiso   1.00
C1118  C     0.61644   0.63477   0.23669   0.00000  Uiso   1.00
C1119  C     0.53288   0.66233   0.18801   0.00000  Uiso   1.00
C1120  C     0.65097   0.57647   0.23273   0.00000  Uiso   1.00
C1121  C     0.51902   0.62049   0.17527   0.00000  Uiso   1.00
C1122  C     0.57249   0.67843   0.22321   0.00000  Uiso   1.00
C1123  C     0.51403   0.68592   0.22509   0.00000  Uiso   1.00
C1124  C     0.60132   0.64677   0.22642   0.00000  Uiso   1.00
C1125  C     0.66164   0.62133   0.26191   0.00000  Uiso   1.00
C1126  C     0.54978   0.61205   0.21397   0.00000  Uiso   1.00
C1127  C     0.58277   0.54385   0.16190   0.00000  Uiso   1.00
C1128  C     0.65561   0.62537   0.23638   0.00000  Uiso   1.00
C1129  C     0.54467   0.65197   0.20438   0.00000  Uiso   1.00
C1130  C     0.58597   0.63319   0.20448   0.00000  Uiso   1.00
C1131  C     0.54674   0.70584   0.21190   0.00000  Uiso   1.00
C1132  C     0.59680   0.66952   0.22937   0.00000  Uiso   1.00
C1133  C     0.61533   0.55667   0.23682   0.00000  Uiso   1.00
C1134  C     0.57100   0.68264   0.24493   0.00000  Uiso   1.00
C1135  C     0.58241   0.70462   0.25324   0.00000  Uiso   1.00
C1136  C     0.62299   0.60981   0.23795   0.00000  Uiso   1.00
C1137  C     0.53014   0.63051   0.21340   0.00000  Uiso   1.00
C1138  C     0.55058   0.56603   0.18374   0.00000  Uiso   1.00
C1139  C     0.54095   0.68535   0.22837   0.00000  Uiso   1.00
C1140  C     0.63922   0.54588   0.20151   0.00000  Uiso   1.00
C1141  C     0.60433   0.55318   0.19611   0.00000  Uiso   1.00
C1142  C     0.50184   0.66821   0.21951   0.00000  Uiso   1.00
C1143  C     0.58662   0.57383   0.19613   0.00000  Uiso   1.00
C1144  C     0.60241   0.59495   0.23316   0.00000  Uiso   1.00
C1145  C     0.62508   0.56272   0.18826   0.00000  Uiso   1.00
C1146  C     0.66545   0.60973   0.22310   0.00000  Uiso   1.00
C1147  C     0.56388   0.54805   0.22353   0.00000  Uiso   1.00
C1148  C     0.56992   0.64552   0.18920   0.00000  Uiso   1.00
C1149  C     0.51267   0.65369   0.19488   0.00000  Uiso   1.00
C1150  C     0.54362   0.59182   0.22166   0.00000  Uiso   1.00
C1151  C     0.62605   0.61964   0.18865   0.00000  Uiso   1.00
C1152  C     0.66940   0.57710   0.19471   0.00000  Uiso   1.00
C1153  C     0.51042   0.62861   0.19860   0.00000  Uiso   1.00
C1154  C     0.56281   0.56594   0.20421   0.00000  Uiso   1.00
C1155  C     0.51129   0.55316   0.16850   0.00000  Uiso   1.00
C1156  C     0.57197   0.62497   0.22390   0.00000  Uiso   1.00
C1157  C     0.67593   0.67351   0.30952   0.00000  Uiso   1.00
C1158  C     0.60668   0.54586   0.21933   0.00000  Uiso   1.00
C1159  C     0.49918   0.68861   0.25132   0.00000  Uiso   1.00
C1160  C     0.57228   0.69261   0.20199   0.00000  Uiso   1.00
C1161  C     0.55245   0.60805   0.18787   0.00000  Uiso   1.00
C1162  C     0.54535   0.70919   0.26146   0.00000  Uiso   1.00
C1163  C     0.54746   0.68469   0.24867   0.00000  Uiso   1.00
C1164  C     0.60168   0.59240   0.20655   0.00000  Uiso   1.00
C1165  C     0.63774   0.60233   0.20085   0.00000  Uiso   1.00
C1166  C     0.66138   0.69500   0.30941   0.00000  Uiso   1.00
C1167  C     0.58945   0.60962   0.17404   0.00000  Uiso   1.00
C1168  C     0.56568   0.70812   0.27811   0.00000  Uiso   1.00
C1169  C     0.50079   0.64795   0.23690   0.00000  Uiso   1.00
C1170  C     0.60271   0.70538   0.26809   0.00000  Uiso   1.00
C1171  C     0.58702   0.64431   0.24377   0.00000  Uiso   1.00
C1172  C     0.56828   0.62537   0.17631   0.00000  Uiso   1.00
C1173  C     0.60120   0.61589   0.19325   0.00000  Uiso   1.00
C1174  C     0.63698   0.64136   0.22558   0.00000  Uiso   1.00
C1175  C     0.66393   0.70315   0.23988   0.00000  Uiso   1.00
C1176  C     0.62113   0.58551   0.19862   0.00000  Uiso   1.00
C1177  C     0.55495   0.66653   0.22289   0.00000  Uiso   1.00
C1178  C     0.63770   0.55934   0.24661   0.00000  Uiso   1.00
C1179  C     0.51602   0.58079   0.19813   0.00000  Uiso   1.00
C1180  C     0.52284   0.71287   0.27443   0.00000  Uiso   1.00
C1181  C     0.63577   0.63953   0.20026   0.00000  Uiso   1.00
C1182  C     0.52566   0.56015   0.18919   0.00000  Uiso   1.00
C1183  C     0.66363   0.70252   0.28306   0.00000  Uiso   1.00
C1184  C     0.54816   0.73020   0.24612   0.00000  Uiso   1.00
C1185  C     0.58051   0.76484   0.29868   0.00000  Uiso   1.00
C1186  C     0.52892   0.72372   0.20934   0.00000  Uiso   1.00
C1187  C     0.52499   0.73714   0.23671   0.00000  Uiso   1.00
C1188  C     0.51709   0.75359   0.28541   0.00000  Uiso   1.00
C1189  C     0.56482   0.74745   0.25567   0.00000  Uiso   1.00
C1190  C     0.66716   0.72660   0.28402   0.00000  Uiso   1.00
C1191  C     0.64663   0.78927   0.32056   0.00000  Uiso   1.00
C1192  C     0.59468   0.80267   0.31123   0.00000  Uiso   1.00
C1193  C     0.51143   0.73374   0.26786   0.00000  Uiso   1.00
C1194  C     0.62880   0.78207   0.30749   0.00000  Uiso   1.00
C1195  C     0.60225   0.75445   0.29067   0.00000  Uiso   1.00
C1196  C     0.56911   0.73082   0.29177   0.00000  Uiso   1.00
C1197  C     0.59922   0.72895   0.29227   0.00000  Uiso   1.00
C1198  C     0.57796   0.79066   0.29705   0.00000  Uiso   1.00
C1199  C     0.56168   0.82968   0.32223   0.00000  Uiso   1.00
C1200  C     0.64716   0.74232   0.28246   0.00000  Uiso   1.00
C1201  C     0.55623   0.78975   0.31853   0.00000  Uiso   1.00
C1202  C     0.63774   0.74779   0.31135   0.00000  Uiso   1.00
C1203  C     0.50951   0.74857   0.30820   0.00000  Uiso   1.00
C1204  C     0.55908   0.75190   0.28182   0.00000  Uiso   1.00
C1205  C     0.54709   0.80397   0.27182   0.00000  Uiso   1.00
C1206  C     0.60349   0.72945   0.27130   0.00000  Uiso   1.00
C1207  C     0.63920   0.72696   0.32445   0.00000  Uiso   1.00
C1208  C     0.52227   0.75994   0.22509   0.00000  Uiso   1.00
C1209  C     0.57132   0.75290   0.32006   0.00000  Uiso   1.00
C1210  C     0.50006   0.79818   0.26908   0.00000  Uiso   1.00
C1211  C     0.55858   0.72970   0.22615   0.00000  Uiso   1.00
C1212  C     0.54050   0.78049   0.26218   0.00000  Uiso   1.00
C1213  C     0.65470   0.76568   0.32105   0.00000  Uiso   1.00
C1214  C     0.60304   0.72610   0.21947   0.00000  Uiso   1.00
C1215  C     0.57210   0.80482   0.27837   0.00000  Uiso   1.00
C1216  C     0.50609   0.77317   0.23669   0.00000  Uiso   1.00
C1217  C     0.61922   0.76153   0.30875   0.00000  Uiso   1.00
C1218  C     0.51775   0.78243   0.32157   0.00000  Uiso   1.00
C1219  C     0.61663   0.80037   0.29818   0.00000  Uiso   1.00
C1220  C     0.50540   0.73238   0.24773   0.00000  Uiso   1.00
C1221  C     0.55849   0.77033   0.24452   0.00000  Uiso   1.00
C1222  C     0.58286   0.72565   0.23761   0.00000  Uiso   1.00
C1223  C     0.53686   0.78752   0.30267   0.00000  Uiso   1.00
C1224  C     0.60449   0.75731   0.24552   0.00000  Uiso   1.00
C1225  C     0.63378   0.73978   0.24160   0.00000  Uiso   1.00
C1226  C     0.53913   0.76870   0.28387   0.00000  Uiso   1.00
C1227  C     0.59043   0.74211   0.25308   0.00000  Uiso   1.00
C1228  C     0.53580   0.82757   0.30704   0.00000  Uiso   1.00
C1229  C     0.62558   0.74038   0.26699   0.00000  Uiso   1.00
C1230  C     0.53091   0.80812   0.29123   0.00000  Uiso   1.00
C1231  C     0.50846   0.81837   0.28427   0.00000  Uiso   1.00
C1232  C     0.61766   0.75996   0.26530   0.00000  Uiso   1.00
C1233  C     0.74296   0.33487   0.49389   0.00000  Uiso   1.00
C1234  C     0.75243   0.29829   0.46051   0.00000  Uiso   1.00
C1235  C     0.73749   0.31480   0.45993   0.00000  Uiso   1.00
C1236  C     0.85229   0.54070   0.46132   0.00000  Uiso   1.00
C1237  C     0.70253   0.32947   0.33596   0.00000  Uiso   1.00
C1238  C     0.71330   0.30295   0.36743   0.00000  Uiso   1.00
C1239  C     0.73262   0.34294   0.36697   0.00000  Uiso   1.00
C1240  C     0.75813   0.31937   0.41005   0.00000  Uiso   1.00
C1241  C     0.68804   0.34855   0.34498   0.00000  Uiso   1.00
C1242  C     0.67883   0.23466   0.48648   0.00000  Uiso   1.00
C1243  C     0.74279   0.29387   0.50369   0.00000  Uiso   1.00
C1244  C     0.68686   0.31391   0.33087   0.00000  Uiso   1.00
C1245  C     0.78106   0.35715   0.48511   0.00000  Uiso   1.00
C1246  C     0.72109   0.31250   0.44064   0.00000  Uiso   1.00
C1247  C     0.74759   0.33610   0.46809   0.00000  Uiso   1.00
C1248  C     0.68111   0.30934   0.39930   0.00000  Uiso   1.00
C1249  C     0.72138   0.32432   0.35390   0.00000  Uiso   1.00
C1250  C     0.69332   0.25875   0.42654   0.00000  Uiso   1.00
C1251  C     0.67867   0.25866   0.44796   0.00000  Uiso   1.00
C1252  C     0.70157   0.27967   0.41356   0.00000  Uiso   1.00
C1253  C     0.68932   0.30060   0.37696   0.00000  Uiso   1.00
C1254  C     0.71743   0.33842   0.49246   0.00000  Uiso   1.00
C1255  C     0.67677   0.30933   0.43010   0.00000  Uiso   1.00
C1256  C     0.69460   0.24627   0.49526   0.00000  Uiso   1.00
C1257  C     0.72120   0.35715   0.44062   0.00000  Uiso   1.00
C1258  C     0.74253   0.35540   0.45214   0.00000  Uiso   1.00
C1259  C     0.67974   0.29227   0.41464   0.00000  Uiso   1.00
C1260  C     0.78293   0.34740   0.44625   0.00000  Uiso   1.00
C1261  C     0.76033   0.35935   0.49720   0.00000  Uiso   1.00
C1262  C     0.73967   0.30792   0.39930   0.00000  Uiso   1.00
C1263  C     0.69505   0.31907   0.46711   0.00000  Uiso   1.00
C1264  C     0.77461   0.33751   0.47001   0.00000  Uiso   1.00
C1265  C     0.71681   0.29145   0.48862   0.00000  Uiso   1.00
C1266  C     0.72028   0.28872   0.42900   0.00000  Uiso   1.00
C1267  C     0.70901   0.27708   0.46857   0.00000  Uiso   1.00
C1268  C     0.69368   0.30477   0.45048   0.00000  Uiso   1.00
C1269  C     0.68441   0.28387   0.46332   0.00000  Uiso   1.00
C1270  C     0.71874   0.31607   0.47878   0.00000  Uiso   1.00
C1271  C     0.84878   0.53432   0.50102   0.00000  Uiso   1.00
C1272  C     0.77054   0.39401   0.33300   0.00000  Uiso   1.00
C1273  C     0.70372   0.38815   0.32771   0.00000  Uiso   1.00
C1274  C     0.73725   0.40828   0.35272   0.00000  Uiso   1.00
C1275  C     0.75792   0.41241   0.47240   0.00000  Uiso   1.00
C1276  C     0.81679   0.51239   0.49494   0.00000  Uiso   1.00
C1277  C     0.71296   0.42582   0.35098   0.00000  Uiso   1.00
C1278  C     0.79901   0.53042   0.49645   0.00000  Uiso   1.00
C1279  C     0.78497   0.49140   0.33448   0.00000  Uiso   1.00
C1280  C     0.74469   0.39421   0.43596   0.00000  Uiso   1.00
C1281  C     0.71355   0.41157   0.33323   0.00000  Uiso   1.00
C1282  C     0.75647   0.43121   0.41949   0.00000  Uiso   1.00
C1283  C     0.75842   0.39403   0.35578   0.00000  Uiso   1.00
C1284  C     0.81211   0.50347   0.36899   0.00000  Uiso   1.00
C1285  C     0.74262   0.36295   0.35865   0.00000  Uiso   1.00
C1286  C     0.79737   0.45727   0.41439   0.00000  Uiso   1.00
C1287  C     0.75696   0.48839   0.35640   0.00000  Uiso   1.00
C1288  C     0.77381   0.45090   0.48863   0.00000  Uiso   1.00
C1289  C     0.78560   0.47917   0.49293   0.00000  Uiso   1.00
C1290  C     0.77494   0.51890   0.37247   0.00000  Uiso   1.00
C1291  C     0.80874   0.42506   0.47860   0.00000  Uiso   1.00
C1292  C     0.82086   0.50856   0.45191   0.00000  Uiso   1.00
C1293  C     0.78784   0.48423   0.44206   0.00000  Uiso   1.00
C1294  C     0.77970   0.39893   0.46698   0.00000  Uiso   1.00
C1295  C     0.74771   0.37488   0.46931   0.00000  Uiso   1.00
C1296  C     0.77380   0.37439   0.46909   0.00000  Uiso   1.00
C1297  C     0.77289   0.53664   0.36004   0.00000  Uiso   1.00
C1298  C     0.77777   0.47164   0.40220   0.00000  Uiso   1.00
C1299  C     0.80458   0.51777   0.43475   0.00000  Uiso   1.00
C1300  C     0.83583   0.44539   0.44379   0.00000  Uiso   1.00
C1301  C     0.81562   0.39204   0.48370   0.00000  Uiso   1.00
C1302  C     0.79489   0.51134   0.38549   0.00000  Uiso   1.00
C1303  C     0.76244   0.36692   0.34336   0.00000  Uiso   1.00
C1304  C     0.76211   0.45816   0.38567   0.00000  Uiso   1.00
C1305  C     0.78158   0.49567   0.40359   0.00000  Uiso   1.00
C1306  C     0.79539   0.38531   0.40585   0.00000  Uiso   1.00
C1307  C     0.79979   0.43192   0.41555   0.00000  Uiso   1.00
C1308  C     0.73060   0.38201   0.36649   0.00000  Uiso   1.00
C1309  C     0.80531   0.53624   0.39888   0.00000  Uiso   1.00
C1310  C     0.79872   0.46011   0.43824   0.00000  Uiso   1.00
C1311  C     0.83159   0.48787   0.43287   0.00000  Uiso   1.00
C1312  C     0.79929   0.42650   0.43725   0.00000  Uiso   1.00
C1313  C     0.78215   0.37376   0.44550   0.00000  Uiso   1.00
C1314  C     0.79828   0.48383   0.36199   0.00000  Uiso   1.00
C1315  C     0.81006   0.37737   0.50048   0.00000  Uiso   1.00
C1316  C     0.76473   0.39436   0.38052   0.00000  Uiso   1.00
C1317  C     0.75164   0.39717   0.49821   0.00000  Uiso   1.00
C1318  C     0.77711   0.42159   0.40996   0.00000  Uiso   1.00
C1319  C     0.74969   0.46738   0.36834   0.00000  Uiso   1.00
C1320  C     0.78003   0.43459   0.33150   0.00000  Uiso   1.00
C1321  C     0.80201   0.44052   0.36631   0.00000  Uiso   1.00
C1322  C     0.74017   0.39030   0.38821   0.00000  Uiso   1.00
C1323  C     0.69064   0.37497   0.34630   0.00000  Uiso   1.00
C1324  C     0.74323   0.37495   0.49261   0.00000  Uiso   1.00
C1325  C     0.82066   0.49065   0.41356   0.00000  Uiso   1.00
C1326  C     0.75574   0.50468   0.37381   0.00000  Uiso   1.00
C1327  C     0.73472   0.41354   0.33087   0.00000  Uiso   1.00
C1328  C     0.79664   0.40381   0.48426   0.00000  Uiso   1.00
C1329  C     0.78834   0.49394   0.47067   0.00000  Uiso   1.00
C1330  C     0.79946   0.49643   0.42352   0.00000  Uiso   1.00
C1331  C     0.75012   0.49275   0.33323   0.00000  Uiso   1.00
C1332  C     0.77931   0.49348   0.35578   0.00000  Uiso   1.00
C1333  C     0.73073   0.42629   0.36282   0.00000  Uiso   1.00
C1334  C     0.82117   0.42691   0.45134   0.00000  Uiso   1.00
C1335  C     0.79095   0.44228   0.47265   0.00000  Uiso   1.00
C1336  C     0.77633   0.41639   0.38415   0.00000  Uiso   1.00
C1337  C     0.83674   0.51488   0.48627   0.00000  Uiso   1.00
C1338  C     0.76745   0.44144   0.35132   0.00000  Uiso   1.00
C1339  C     0.82167   0.46799   0.44573   0.00000  Uiso   1.00
C1340  C     0.81779   0.51871   0.35499   0.00000  Uiso   1.00
C1341  C     0.76096   0.44752   0.43929   0.00000  Uiso   1.00
C1342  C     0.73219   0.45351   0.33456   0.00000  Uiso   1.00
C1343  C     0.81188   0.50028   0.47314   0.00000  Uiso   1.00
C1344  C     0.78338   0.52752   0.44456   0.00000  Uiso   1.00
C1345  C     0.74675   0.44705   0.35541   0.00000  Uiso   1.00
C1346  C     0.77623   0.43985   0.37332   0.00000  Uiso   1.00
C1347  C     0.84693   0.47155   0.47871   0.00000  Uiso   1.00
C1348  C     0.81971   0.46585   0.40389   0.00000  Uiso   1.00
C1349  C     0.80471   0.48606   0.34151   0.00000  Uiso   1.00
C1350  C     0.84227   0.52064   0.41456   0.00000  Uiso   1.00
C1351  C     0.78293   0.39884   0.42300   0.00000  Uiso   1.00
C1352  C     0.79422   0.40356   0.38121   0.00000  Uiso   1.00
C1353  C     0.81642   0.52685   0.41892   0.00000  Uiso   1.00
C1354  C     0.81097   0.46387   0.37515   0.00000  Uiso   1.00
C1355  C     0.70623   0.38084   0.36704   0.00000  Uiso   1.00
C1356  C     0.84053   0.51951   0.46088   0.00000  Uiso   1.00
C1357  C     0.76721   0.38378   0.42911   0.00000  Uiso   1.00
C1358  C     0.78531   0.44307   0.44754   0.00000  Uiso   1.00
C1359  C     0.82215   0.47557   0.47092   0.00000  Uiso   1.00
C1360  C     0.80461   0.38698   0.44311   0.00000  Uiso   1.00
C1361  C     0.79078   0.40343   0.44283   0.00000  Uiso   1.00
C1362  C     0.55735   0.23231   0.35272   0.00000  Uiso   1.00
C1363  C     0.57898   0.22966   0.47434   0.00000  Uiso   1.00
C1364  C     0.52916   0.24449   0.35536   0.00000  Uiso   1.00
C1365  C     0.50124   0.23633   0.46243   0.00000  Uiso   1.00
C1366  C     0.52940   0.20448   0.40906   0.00000  Uiso   1.00
C1367  C     0.51403   0.21903   0.46213   0.00000  Uiso   1.00
C1368  C     0.53244   0.28554   0.34745   0.00000  Uiso   1.00
C1369  C     0.61099   0.31341   0.33417   0.00000  Uiso   1.00
C1370  C     0.56222   0.21680   0.43546   0.00000  Uiso   1.00
C1371  C     0.64200   0.24474   0.39994   0.00000  Uiso   1.00
C1372  C     0.53447   0.23465   0.33341   0.00000  Uiso   1.00
C1373  C     0.57777   0.25079   0.41749   0.00000  Uiso   1.00
C1374  C     0.63726   0.32603   0.36795   0.00000  Uiso   1.00
C1375  C     0.64534   0.25800   0.50060   0.00000  Uiso   1.00
C1376  C     0.62074   0.27970   0.41825   0.00000  Uiso   1.00
C1377  C     0.63399   0.28442   0.33171   0.00000  Uiso   1.00
C1378  C     0.66860   0.26196   0.37564   0.00000  Uiso   1.00
C1379  C     0.57870   0.30414   0.34968   0.00000  Uiso   1.00
C1380  C     0.59610   0.27131   0.48805   0.00000  Uiso   1.00
C1381  C     0.51659   0.26706   0.35292   0.00000  Uiso   1.00
C1382  C     0.51184   0.19649   0.44986   0.00000  Uiso   1.00
C1383  C     0.63178   0.24935   0.47902   0.00000  Uiso   1.00
C1384  C     0.62580   0.26224   0.34103   0.00000  Uiso   1.00
C1385  C     0.59876   0.22648   0.46750   0.00000  Uiso   1.00
C1386  C     0.57045   0.19848   0.46667   0.00000  Uiso   1.00
C1387  C     0.65815   0.32756   0.37437   0.00000  Uiso   1.00
C1388  C     0.59347   0.20582   0.46302   0.00000  Uiso   1.00
C1389  C     0.60139   0.28914   0.40400   0.00000  Uiso   1.00
C1390  C     0.49924   0.23240   0.48511   0.00000  Uiso   1.00
C1391  C     0.57522   0.26305   0.47908   0.00000  Uiso   1.00
C1392  C     0.66520   0.27295   0.49916   0.00000  Uiso   1.00
C1393  C     0.50778   0.31114   0.32798   0.00000  Uiso   1.00
C1394  C     0.66071   0.27138   0.44931   0.00000  Uiso   1.00
C1395  C     0.55701   0.25625   0.49453   0.00000  Uiso   1.00
C1396  C     0.54784   0.25478   0.38958   0.00000  Uiso   1.00
C1397  C     0.50917   0.21362   0.48358   0.00000  Uiso   1.00
C1398  C     0.56079   0.21678   0.46140   0.00000  Uiso   1.00
C1399  C     0.65788   0.27819   0.41235   0.00000  Uiso   1.00
C1400  C     0.66304   0.32077   0.39955   0.00000  Uiso   1.00
C1401  C     0.58711   0.27440   0.38178   0.00000  Uiso   1.00
C1402  C     0.62496   0.25637   0.41522   0.00000  Uiso   1.00
C1403  C     0.53254   0.27545   0.38954   0.00000  Uiso   1.00
C1404  C     0.62071   0.28686   0.44049   0.00000  Uiso   1.00
C1405  C     0.65680   0.30112   0.43216   0.00000  Uiso   1.00
C1406  C     0.62726   0.24787   0.43801   0.00000  Uiso   1.00
C1407  C     0.61893   0.30210   0.36259   0.00000  Uiso   1.00
C1408  C     0.50356   0.19148   0.48385   0.00000  Uiso   1.00
C1409  C     0.67617   0.34466   0.36581   0.00000  Uiso   1.00
C1410  C     0.64593   0.32855   0.33337   0.00000  Uiso   1.00
C1411  C     0.52379   0.22688   0.40105   0.00000  Uiso   1.00
C1412  C     0.65412   0.29017   0.34119   0.00000  Uiso   1.00
C1413  C     0.57383   0.21708   0.49250   0.00000  Uiso   1.00
C1414  C     0.59865   0.24183   0.41109   0.00000  Uiso   1.00
C1415  C     0.51702   0.25384   0.42962   0.00000  Uiso   1.00
C1416  C     0.49922   0.25885   0.44860   0.00000  Uiso   1.00
C1417  C     0.66138   0.25346   0.39987   0.00000  Uiso   1.00
C1418  C     0.57091   0.28714   0.36750   0.00000  Uiso   1.00
C1419  C     0.66888   0.30641   0.36264   0.00000  Uiso   1.00
C1420  C     0.54351   0.23436   0.40282   0.00000  Uiso   1.00
C1421  C     0.60392   0.25429   0.32839   0.00000  Uiso   1.00
C1422  C     0.53915   0.24819   0.44149   0.00000  Uiso   1.00
C1423  C     0.62678   0.26259   0.36535   0.00000  Uiso   1.00
C1424  C     0.66553   0.31242   0.34007   0.00000  Uiso   1.00
C1425  C     0.54238   0.19168   0.49932   0.00000  Uiso   1.00
C1426  C     0.51036   0.26948   0.33077   0.00000  Uiso   1.00
C1427  C     0.51317   0.27361   0.37267   0.00000  Uiso   1.00
C1428  C     0.56631   0.19546   0.49225   0.00000  Uiso   1.00
C1429  C     0.57098   0.27041   0.40186   0.00000  Uiso   1.00
C1430  C     0.65642   0.23599   0.49974   0.00000  Uiso   1.00
C1431  C     0.67963   0.31873   0.48755   0.00000  Uiso   1.00
C1432  C     0.64851   0.30683   0.41246   0.00000  Uiso   1.00
C1433  C     0.50359   0.23823   0.41434   0.00000  Uiso   1.00
C1434  C     0.61807   0.22861   0.48419   0.00000  Uiso   1.00
C1435  C     0.60134   0.31490   0.35484   0.00000  Uiso   1.00
C1436  C     0.54944   0.25212   0.36362   0.00000  Uiso   1.00
C1437  C     0.64960   0.24922   0.45028   0.00000  Uiso   1.00
C1438  C     0.51768   0.24828   0.49573   0.00000  Uiso   1.00
C1439  C     0.61522   0.26436   0.47226   0.00000  Uiso   1.00
C1440  C     0.50668   0.20012   0.42442   0.00000  Uiso   1.00
C1441  C     0.55699   0.23822   0.42559   0.00000  Uiso   1.00
C1442  C     0.60200   0.23677   0.38601   0.00000  Uiso   1.00
C1443  C     0.63689   0.24226   0.37592   0.00000  Uiso   1.00
C1444  C     0.58815   0.25339   0.34965   0.00000  Uiso   1.00
C1445  C     0.64358   0.29013   0.45016   0.00000  Uiso   1.00
C1446  C     0.64086   0.34180   0.35358   0.00000  Uiso   1.00
C1447  C     0.65216   0.27890   0.36455   0.00000  Uiso   1.00
C1448  C     0.58533   0.26428   0.43880   0.00000  Uiso   1.00
C1449  C     0.55463   0.27910   0.33668   0.00000  Uiso   1.00
C1450  C     0.57058   0.27156   0.35311   0.00000  Uiso   1.00
C1451  C     0.60205   0.25723   0.37167   0.00000  Uiso   1.00
C1452  C     0.66902   0.29741   0.48200   0.00000  Uiso   1.00
C1453  C     0.53597   0.25364   0.47849   0.00000  Uiso   1.00
C1454  C     0.63753   0.28702   0.40086   0.00000  Uiso   1.00
C1455  C     0.62781   0.30488   0.34341   0.00000  Uiso   1.00
C1456  C     0.60230   0.22148   0.42470   0.00000  Uiso   1.00
C1457  C     0.51757   0.22594   0.37592   0.00000  Uiso   1.00
C1458  C     0.53516   0.23364   0.46102   0.00000  Uiso   1.00
C1459  C     0.63124   0.28465   0.37690   0.00000  Uiso   1.00
C1460  C     0.60964   0.26528   0.44680   0.00000  Uiso   1.00
C1461  C     0.61622   0.22510   0.44284   0.00000  Uiso   1.00
C1462  C     0.71658   0.33459   0.31397   0.00000  Uiso   1.00
C1463  C     0.71476   0.35601   0.30250   0.00000  Uiso   1.00
C1464  C     0.74091   0.51588   0.32657   0.00000  Uiso   1.00
C1465  C     0.75553   0.47527   0.28189   0.00000  Uiso   1.00
C1466  C     0.73525   0.49007   0.28400   0.00000  Uiso   1.00
C1467  C     0.79792   0.52875   0.32009   0.00000  Uiso   1.00
C1468  C     0.67821   0.41296   0.28577   0.00000  Uiso   1.00
C1469  C     0.69436   0.39802   0.28471   0.00000  Uiso   1.00
C1470  C     0.68873   0.52757   0.21363   0.00000  Uiso   1.00
C1471  C     0.77291   0.44895   0.31012   0.00000  Uiso   1.00
C1472  C     0.68857   0.37573   0.27326   0.00000  Uiso   1.00
C1473  C     0.78588   0.48299   0.31169   0.00000  Uiso   1.00
C1474  C     0.69384   0.50868   0.22857   0.00000  Uiso   1.00
C1475  C     0.67765   0.41048   0.30738   0.00000  Uiso   1.00
C1476  C     0.75281   0.43530   0.29958   0.00000  Uiso   1.00
C1477  C     0.74388   0.47148   0.32218   0.00000  Uiso   1.00
C1478  C     0.73479   0.43409   0.31676   0.00000  Uiso   1.00
C1479  C     0.68870   0.39257   0.30630   0.00000  Uiso   1.00
C1480  C     0.72599   0.44799   0.26888   0.00000  Uiso   1.00
C1481  C     0.77903   0.53319   0.30419   0.00000  Uiso   1.00
C1482  C     0.71734   0.48992   0.26588   0.00000  Uiso   1.00
C1483  C     0.72060   0.50566   0.22925   0.00000  Uiso   1.00
C1484  C     0.75177   0.50977   0.28071   0.00000  Uiso   1.00
C1485  C     0.76453   0.47117   0.30662   0.00000  Uiso   1.00
C1486  C     0.68152   0.48766   0.21951   0.00000  Uiso   1.00
C1487  C     0.67664   0.37004   0.30482   0.00000  Uiso   1.00
C1488  C     0.75359   0.39922   0.31759   0.00000  Uiso   1.00
C1489  C     0.69765   0.43488   0.25212   0.00000  Uiso   1.00
C1490  C     0.68245   0.43521   0.27377   0.00000  Uiso   1.00
C1491  C     0.70171   0.45608   0.23815   0.00000  Uiso   1.00
C1492  C     0.71941   0.51556   0.31393   0.00000  Uiso   1.00
C1493  C     0.72008   0.42404   0.25935   0.00000  Uiso   1.00
C1494  C     0.71983   0.37091   0.31939   0.00000  Uiso   1.00
C1495  C     0.74264   0.37693   0.31671   0.00000  Uiso   1.00
C1496  C     0.67517   0.48648   0.25240   0.00000  Uiso   1.00
C1497  C     0.74932   0.44974   0.27763   0.00000  Uiso   1.00
C1498  C     0.68408   0.41997   0.23633   0.00000  Uiso   1.00
C1499  C     0.67849   0.51273   0.24871   0.00000  Uiso   1.00
C1500  C     0.69587   0.42555   0.31796   0.00000  Uiso   1.00
C1501  C     0.72231   0.53284   0.26272   0.00000  Uiso   1.00
C1502  C     0.68364   0.37860   0.24661   0.00000  Uiso   1.00
C1503  C     0.68356   0.51834   0.27366   0.00000  Uiso   1.00
C1504  C     0.72685   0.51073   0.24971   0.00000  Uiso   1.00
C1505  C     0.74259   0.52859   0.26827   0.00000  Uiso   1.00
C1506  C     0.68082   0.46994   0.23558   0.00000  Uiso   1.00
C1507  C     0.71498   0.43229   0.30058   0.00000  Uiso   1.00
C1508  C     0.75785   0.53428   0.31899   0.00000  Uiso   1.00
C1509  C     0.69573   0.49482   0.28919   0.00000  Uiso   1.00
C1510  C     0.69789   0.53393   0.28059   0.00000  Uiso   1.00
C1511  C     0.71728   0.40993   0.28070   0.00000  Uiso   1.00
C1512  C     0.77666   0.51328   0.29077   0.00000  Uiso   1.00
C1513  C     0.72266   0.47537   0.31018   0.00000  Uiso   1.00
C1514  C     0.72131   0.46761   0.25219   0.00000  Uiso   1.00
C1515  C     0.70514   0.53690   0.30594   0.00000  Uiso   1.00
C1516  C     0.71206   0.45399   0.29008   0.00000  Uiso   1.00
C1517  C     0.68957   0.47896   0.27009   0.00000  Uiso   1.00
C1518  C     0.68663   0.45825   0.28539   0.00000  Uiso   1.00
C1519  C     0.71880   0.49638   0.29616   0.00000  Uiso   1.00
C1520  C     0.66425   0.35933   0.32419   0.00000  Uiso   1.00
C1521  C     0.57497   0.29318   0.28194   0.00000  Uiso   1.00
C1522  C     0.64098   0.33863   0.31561   0.00000  Uiso   1.00
C1523  C     0.51049   0.35143   0.21020   0.00000  Uiso   1.00
C1524  C     0.59322   0.26833   0.31244   0.00000  Uiso   1.00
C1525  C     0.60292   0.30895   0.31107   0.00000  Uiso   1.00
C1526  C     0.64443   0.32590   0.27235   0.00000  Uiso   1.00
C1527  C     0.51403   0.32986   0.22509   0.00000  Uiso   1.00
C1528  C     0.54674   0.34978   0.21190   0.00000  Uiso   1.00
C1529  C     0.54173   0.31034   0.26648   0.00000  Uiso   1.00
C1530  C     0.54095   0.32928   0.22837   0.00000  Uiso   1.00
C1531  C     0.57167   0.33256   0.29239   0.00000  Uiso   1.00
C1532  C     0.58544   0.28940   0.30997   0.00000  Uiso   1.00
C1533  C     0.67330   0.53885   0.23072   0.00000  Uiso   1.00
C1534  C     0.67593   0.31744   0.30952   0.00000  Uiso   1.00
C1535  C     0.49918   0.33254   0.25132   0.00000  Uiso   1.00
C1536  C     0.61166   0.31476   0.29093   0.00000  Uiso   1.00
C1537  C     0.62477   0.28832   0.30895   0.00000  Uiso   1.00
C1538  C     0.51921   0.24830   0.31922   0.00000  Uiso   1.00
C1539  C     0.54535   0.35312   0.26146   0.00000  Uiso   1.00
C1540  C     0.50892   0.33519   0.27430   0.00000  Uiso   1.00
C1541  C     0.54746   0.32863   0.24867   0.00000  Uiso   1.00
C1542  C     0.66138   0.33894   0.30941   0.00000  Uiso   1.00
C1543  C     0.56568   0.35205   0.27811   0.00000  Uiso   1.00
C1544  C     0.63565   0.32519   0.29314   0.00000  Uiso   1.00
C1545  C     0.53227   0.25528   0.30167   0.00000  Uiso   1.00
C1546  C     0.51830   0.31621   0.28644   0.00000  Uiso   1.00
C1547  C     0.52284   0.35680   0.27443   0.00000  Uiso   1.00
C1548  C     0.66363   0.34645   0.28306   0.00000  Uiso   1.00
C1549  C     0.64506   0.29651   0.29203   0.00000  Uiso   1.00
C1550  C     0.52950   0.27334   0.29000   0.00000  Uiso   1.00
C1551  C     0.51380   0.30091   0.27258   0.00000  Uiso   1.00
C1552  C     0.50649   0.28102   0.28500   0.00000  Uiso   1.00
C1553  C     0.67180   0.40027   0.24541   0.00000  Uiso   1.00
C1554  C     0.54816   0.37413   0.24612   0.00000  Uiso   1.00
C1555  C     0.52892   0.36765   0.20934   0.00000  Uiso   1.00
C1556  C     0.53107   0.42259   0.17587   0.00000  Uiso   1.00
C1557  C     0.52499   0.38107   0.23671   0.00000  Uiso   1.00
C1558  C     0.53417   0.45998   0.16738   0.00000  Uiso   1.00
C1559  C     0.56482   0.39139   0.25567   0.00000  Uiso   1.00
C1560  C     0.64219   0.42131   0.22381   0.00000  Uiso   1.00
C1561  C     0.56253   0.46977   0.23541   0.00000  Uiso   1.00
C1562  C     0.57812   0.43195   0.24020   0.00000  Uiso   1.00
C1563  C     0.66716   0.37053   0.28402   0.00000  Uiso   1.00
C1564  C     0.63429   0.50568   0.19600   0.00000  Uiso   1.00
C1565  C     0.50543   0.52852   0.21438   0.00000  Uiso   1.00
C1566  C     0.52264   0.51007   0.15721   0.00000  Uiso   1.00
C1567  C     0.62083   0.45698   0.23526   0.00000  Uiso   1.00
C1568  C     0.53474   0.48297   0.18679   0.00000  Uiso   1.00
C1569  C     0.64937   0.39745   0.23137   0.00000  Uiso   1.00
C1570  C     0.57900   0.48983   0.17930   0.00000  Uiso   1.00
C1571  C     0.51886   0.44511   0.17334   0.00000  Uiso   1.00
C1572  C     0.51143   0.37767   0.26786   0.00000  Uiso   1.00
C1573  C     0.59631   0.51511   0.18914   0.00000  Uiso   1.00
C1574  C     0.55564   0.52444   0.18799   0.00000  Uiso   1.00
C1575  C     0.57605   0.49709   0.21992   0.00000  Uiso   1.00
C1576  C     0.65960   0.50420   0.19205   0.00000  Uiso   1.00
C1577  C     0.50537   0.52848   0.16505   0.00000  Uiso   1.00
C1578  C     0.59188   0.53491   0.18145   0.00000  Uiso   1.00
C1579  C     0.59776   0.46605   0.22846   0.00000  Uiso   1.00
C1580  C     0.65811   0.44833   0.26174   0.00000  Uiso   1.00
C1581  C     0.54727   0.43341   0.21153   0.00000  Uiso   1.00
C1582  C     0.61293   0.51246   0.20913   0.00000  Uiso   1.00
C1583  C     0.66017   0.45476   0.23598   0.00000  Uiso   1.00
C1584  C     0.54785   0.47386   0.20393   0.00000  Uiso   1.00
C1585  C     0.66105   0.50001   0.22197   0.00000  Uiso   1.00
C1586  C     0.58989   0.45796   0.20505   0.00000  Uiso   1.00
C1587  C     0.54957   0.52797   0.21239   0.00000  Uiso   1.00
C1588  C     0.60020   0.49161   0.22693   0.00000  Uiso   1.00
C1589  C     0.61852   0.38995   0.22736   0.00000  Uiso   1.00
C1590  C     0.62156   0.43099   0.23822   0.00000  Uiso   1.00
C1591  C     0.52959   0.45118   0.21369   0.00000  Uiso   1.00
C1592  C     0.62491   0.53400   0.21802   0.00000  Uiso   1.00
C1593  C     0.65207   0.48819   0.25371   0.00000  Uiso   1.00
C1594  C     0.62799   0.42783   0.26209   0.00000  Uiso   1.00
C1595  C     0.50632   0.49156   0.22114   0.00000  Uiso   1.00
C1596  C     0.54246   0.50217   0.17162   0.00000  Uiso   1.00
C1597  C     0.62137   0.48557   0.18301   0.00000  Uiso   1.00
C1598  C     0.58234   0.39922   0.19880   0.00000  Uiso   1.00
C1599  C     0.52227   0.40388   0.22509   0.00000  Uiso   1.00
C1600  C     0.59817   0.42193   0.23206   0.00000  Uiso   1.00
C1601  C     0.66532   0.43349   0.22319   0.00000  Uiso   1.00
C1602  C     0.55858   0.37363   0.22615   0.00000  Uiso   1.00
C1603  C     0.57039   0.46797   0.19177   0.00000  Uiso   1.00
C1604  C     0.51312   0.48264   0.19743   0.00000  Uiso   1.00
C1605  C     0.54627   0.41153   0.22161   0.00000  Uiso   1.00
C1606  C     0.50976   0.45244   0.19590   0.00000  Uiso   1.00
C1607  C     0.55890   0.39327   0.20799   0.00000  Uiso   1.00
C1608  C     0.56698   0.44799   0.22229   0.00000  Uiso   1.00
C1609  C     0.60304   0.37004   0.21947   0.00000  Uiso   1.00
C1610  C     0.64611   0.48335   0.23104   0.00000  Uiso   1.00
C1611  C     0.50609   0.41710   0.23669   0.00000  Uiso   1.00
C1612  C     0.57358   0.50978   0.19261   0.00000  Uiso   1.00
C1613  C     0.56361   0.49459   0.15911   0.00000  Uiso   1.00
C1614  C     0.60184   0.49413   0.17791   0.00000  Uiso   1.00
C1615  C     0.55186   0.43042   0.18564   0.00000  Uiso   1.00
C1616  C     0.65009   0.42670   0.27283   0.00000  Uiso   1.00
C1617  C     0.50540   0.37632   0.24773   0.00000  Uiso   1.00
C1618  C     0.55849   0.41426   0.24452   0.00000  Uiso   1.00
C1619  C     0.59943   0.41726   0.20723   0.00000  Uiso   1.00
C1620  C     0.63637   0.42079   0.20006   0.00000  Uiso   1.00
C1621  C     0.66115   0.40541   0.27437   0.00000  Uiso   1.00
C1622  C     0.58286   0.36959   0.23761   0.00000  Uiso   1.00
C1623  C     0.64449   0.46904   0.26793   0.00000  Uiso   1.00
C1624  C     0.63844   0.52159   0.17737   0.00000  Uiso   1.00
C1625  C     0.56920   0.44878   0.17582   0.00000  Uiso   1.00
C1626  C     0.60064   0.43884   0.19298   0.00000  Uiso   1.00
C1627  C     0.64035   0.46366   0.22369   0.00000  Uiso   1.00
C1628  C     0.66310   0.52092   0.23576   0.00000  Uiso   1.00
C1629  C     0.60449   0.40124   0.24552   0.00000  Uiso   1.00
C1630  C     0.62194   0.40422   0.20512   0.00000  Uiso   1.00
C1631  C     0.55571   0.48798   0.22244   0.00000  Uiso   1.00
C1632  C     0.63807   0.52964   0.24148   0.00000  Uiso   1.00
C1633  C     0.51797   0.40335   0.20071   0.00000  Uiso   1.00
C1634  C     0.63320   0.46537   0.19441   0.00000  Uiso   1.00
C1635  C     0.52427   0.38468   0.19090   0.00000  Uiso   1.00
C1636  C     0.61766   0.40390   0.26530   0.00000  Uiso   1.00
C1637  C     0.37286   0.55286   0.77865   0.00000  Uiso   1.00
C1638  C     0.40035   0.58410   0.82888   0.00000  Uiso   1.00
C1639  C     0.39636   0.65436   0.81658   0.00000  Uiso   1.00
C1640  C     0.35242   0.55824   0.76649   0.00000  Uiso   1.00
C1641  C     0.38317   0.56918   0.78916   0.00000  Uiso   1.00
C1642  C     0.38271   0.64367   0.76859   0.00000  Uiso   1.00
C1643  C     0.40147   0.60712   0.77552   0.00000  Uiso   1.00
C1644  C     0.32963   0.70766   0.74600   0.00000  Uiso   1.00
C1645  C     0.44105   0.63534   0.77333   0.00000  Uiso   1.00
C1646  C     0.35723   0.65902   0.72349   0.00000  Uiso   1.00
C1647  C     0.33142   0.55736   0.80730   0.00000  Uiso   1.00
C1648  C     0.37655   0.69901   0.72304   0.00000  Uiso   1.00
C1649  C     0.40207   0.67543   0.76612   0.00000  Uiso   1.00
C1650  C     0.46780   0.68879   0.80947   0.00000  Uiso   1.00
C1651  C     0.43220   0.66791   0.80102   0.00000  Uiso   1.00
C1652  C     0.42476   0.58024   0.82337   0.00000  Uiso   1.00
C1653  C     0.34230   0.69039   0.75916   0.00000  Uiso   1.00
C1654  C     0.39306   0.55551   0.82263   0.00000  Uiso   1.00
C1655  C     0.41752   0.56009   0.81987   0.00000  Uiso   1.00
C1656  C     0.33197   0.70462   0.70105   0.00000  Uiso   1.00
C1657  C     0.42095   0.64661   0.76268   0.00000  Uiso   1.00
C1658  C     0.44953   0.69639   0.79162   0.00000  Uiso   1.00
C1659  C     0.39643   0.61031   0.83400   0.00000  Uiso   1.00
C1660  C     0.48140   0.62514   0.79517   0.00000  Uiso   1.00
C1661  C     0.36968   0.61131   0.74890   0.00000  Uiso   1.00
C1662  C     0.38285   0.57326   0.81456   0.00000  Uiso   1.00
C1663  C     0.43722   0.69078   0.74048   0.00000  Uiso   1.00
C1664  C     0.37256   0.64916   0.74071   0.00000  Uiso   1.00
C1665  C     0.37129   0.62706   0.80162   0.00000  Uiso   1.00
C1666  C     0.36977   0.70691   0.74607   0.00000  Uiso   1.00
C1667  C     0.36503   0.66856   0.79671   0.00000  Uiso   1.00
C1668  C     0.42478   0.67150   0.75987   0.00000  Uiso   1.00
C1669  C     0.39508   0.68778   0.78677   0.00000  Uiso   1.00
C1670  C     0.40852   0.70919   0.78771   0.00000  Uiso   1.00
C1671  C     0.35553   0.63251   0.74559   0.00000  Uiso   1.00
C1672  C     0.36646   0.68832   0.76183   0.00000  Uiso   1.00
C1673  C     0.44427   0.71489   0.74874   0.00000  Uiso   1.00
C1674  C     0.44196   0.64366   0.79644   0.00000  Uiso   1.00
C1675  C     0.47490   0.66627   0.78959   0.00000  Uiso   1.00
C1676  C     0.32504   0.66541   0.75536   0.00000  Uiso   1.00
C1677  C     0.42955   0.55204   0.80053   0.00000  Uiso   1.00
C1678  C     0.34671   0.58098   0.75745   0.00000  Uiso   1.00
C1679  C     0.40687   0.66258   0.79946   0.00000  Uiso   1.00
C1680  C     0.33725   0.61482   0.78261   0.00000  Uiso   1.00
C1681  C     0.32261   0.61472   0.80402   0.00000  Uiso   1.00
C1682  C     0.34550   0.63573   0.76963   0.00000  Uiso   1.00
C1683  C     0.33325   0.65667   0.73302   0.00000  Uiso   1.00
C1684  C     0.36966   0.58813   0.75541   0.00000  Uiso   1.00
C1685  C     0.36238   0.60351   0.79523   0.00000  Uiso   1.00
C1686  C     0.33678   0.62683   0.72825   0.00000  Uiso   1.00
C1687  C     0.39523   0.62448   0.75982   0.00000  Uiso   1.00
C1688  C     0.46560   0.66482   0.76726   0.00000  Uiso   1.00
C1689  C     0.39037   0.62943   0.81146   0.00000  Uiso   1.00
C1690  C     0.32889   0.59614   0.76995   0.00000  Uiso   1.00
C1691  C     0.43309   0.67380   0.82521   0.00000  Uiso   1.00
C1692  C     0.44629   0.68104   0.77012   0.00000  Uiso   1.00
C1693  C     0.45430   0.63627   0.84065   0.00000  Uiso   1.00
C1694  C     0.32963   0.55723   0.78234   0.00000  Uiso   1.00
C1695  C     0.37995   0.59291   0.77830   0.00000  Uiso   1.00
C1696  C     0.37027   0.68991   0.78591   0.00000  Uiso   1.00
C1697  C     0.40069   0.54296   0.77321   0.00000  Uiso   1.00
C1698  C     0.46636   0.64905   0.80552   0.00000  Uiso   1.00
C1699  C     0.32367   0.64834   0.77071   0.00000  Uiso   1.00
C1700  C     0.39959   0.62710   0.78964   0.00000  Uiso   1.00
C1701  C     0.45549   0.67810   0.82831   0.00000  Uiso   1.00
C1702  C     0.42686   0.70347   0.80231   0.00000  Uiso   1.00
C1703  C     0.40309   0.64823   0.77888   0.00000  Uiso   1.00
C1704  C     0.48928   0.64679   0.83279   0.00000  Uiso   1.00
C1705  C     0.48426   0.70173   0.76945   0.00000  Uiso   1.00
C1706  C     0.42442   0.57552   0.78168   0.00000  Uiso   1.00
C1707  C     0.38360   0.66399   0.75536   0.00000  Uiso   1.00
C1708  C     0.46013   0.70960   0.77481   0.00000  Uiso   1.00
C1709  C     0.35707   0.59051   0.81581   0.00000  Uiso   1.00
C1710  C     0.40491   0.56023   0.78544   0.00000  Uiso   1.00
C1711  C     0.36422   0.64479   0.78507   0.00000  Uiso   1.00
C1712  C     0.43617   0.62348   0.80926   0.00000  Uiso   1.00
C1713  C     0.46518   0.65330   0.82676   0.00000  Uiso   1.00
C1714  C     0.41447   0.75008   0.68906   0.00000  Uiso   1.00
C1715  C     0.49594   0.75314   0.78070   0.00000  Uiso   1.00
C1716  C     0.34765   0.74421   0.68378   0.00000  Uiso   1.00
C1717  C     0.47354   0.75944   0.70003   0.00000  Uiso   1.00
C1718  C     0.38118   0.76434   0.70879   0.00000  Uiso   1.00
C1719  C     0.34840   0.72095   0.74449   0.00000  Uiso   1.00
C1720  C     0.35690   0.78189   0.70704   0.00000  Uiso   1.00
C1721  C     0.43027   0.76627   0.68235   0.00000  Uiso   1.00
C1722  C     0.47771   0.73700   0.74996   0.00000  Uiso   1.00
C1723  C     0.46840   0.77456   0.76065   0.00000  Uiso   1.00
C1724  C     0.35749   0.76764   0.68930   0.00000  Uiso   1.00
C1725  C     0.40235   0.75010   0.71185   0.00000  Uiso   1.00
C1726  C     0.38656   0.71902   0.71472   0.00000  Uiso   1.00
C1727  C     0.45582   0.81859   0.68663   0.00000  Uiso   1.00
C1728  C     0.47326   0.75185   0.76877   0.00000  Uiso   1.00
C1729  C     0.48834   0.79434   0.73015   0.00000  Uiso   1.00
C1730  C     0.44494   0.79747   0.69720   0.00000  Uiso   1.00
C1731  C     0.43932   0.74138   0.76191   0.00000  Uiso   1.00
C1732  C     0.37453   0.73808   0.72255   0.00000  Uiso   1.00
C1733  C     0.48768   0.74136   0.71125   0.00000  Uiso   1.00
C1734  C     0.46037   0.72760   0.73368   0.00000  Uiso   1.00
C1735  C     0.42644   0.72728   0.72688   0.00000  Uiso   1.00
C1736  C     0.44937   0.74787   0.69681   0.00000  Uiso   1.00
C1737  C     0.48004   0.77063   0.72209   0.00000  Uiso   1.00
C1738  C     0.40867   0.75042   0.73658   0.00000  Uiso   1.00
C1739  C     0.47764   0.82115   0.69519   0.00000  Uiso   1.00
C1740  C     0.44283   0.73889   0.72072   0.00000  Uiso   1.00
C1741  C     0.49113   0.72067   0.76190   0.00000  Uiso   1.00
C1742  C     0.48759   0.78854   0.75455   0.00000  Uiso   1.00
C1743  C     0.38591   0.72678   0.76210   0.00000  Uiso   1.00
C1744  C     0.42396   0.79066   0.68757   0.00000  Uiso   1.00
C1745  C     0.44595   0.79658   0.72238   0.00000  Uiso   1.00
C1746  C     0.49423   0.75308   0.73037   0.00000  Uiso   1.00
C1747  C     0.38410   0.74636   0.74427   0.00000  Uiso   1.00
C1748  C     0.33457   0.73104   0.70237   0.00000  Uiso   1.00
C1749  C     0.42577   0.72835   0.75047   0.00000  Uiso   1.00
C1750  C     0.37865   0.76961   0.68693   0.00000  Uiso   1.00
C1751  C     0.37466   0.78235   0.71889   0.00000  Uiso   1.00
C1752  C     0.42026   0.77246   0.74022   0.00000  Uiso   1.00
C1753  C     0.45951   0.77372   0.73675   0.00000  Uiso   1.00
C1754  C     0.41011   0.72360   0.76875   0.00000  Uiso   1.00
C1755  C     0.41139   0.79751   0.70739   0.00000  Uiso   1.00
C1756  C     0.47806   0.82083   0.72031   0.00000  Uiso   1.00
C1757  C     0.37612   0.80958   0.69063   0.00000  Uiso   1.00
C1758  C     0.39069   0.80312   0.71148   0.00000  Uiso   1.00
C1759  C     0.42017   0.79592   0.72939   0.00000  Uiso   1.00
C1760  C     0.42686   0.75491   0.77906   0.00000  Uiso   1.00
C1761  C     0.43815   0.75963   0.73727   0.00000  Uiso   1.00
C1762  C     0.45916   0.73443   0.77689   0.00000  Uiso   1.00
C1763  C     0.33785   0.75765   0.73014   0.00000  Uiso   1.00
C1764  C     0.35017   0.73691   0.72310   0.00000  Uiso   1.00
C1765  C     0.41115   0.73985   0.78517   0.00000  Uiso   1.00
C1766  C     0.23685   0.57056   0.69391   0.00000  Uiso   1.00
C1767  C     0.31603   0.57819   0.78324   0.00000  Uiso   1.00
C1768  C     0.29373   0.57739   0.69999   0.00000  Uiso   1.00
C1769  C     0.25501   0.58117   0.68597   0.00000  Uiso   1.00
C1770  C     0.30064   0.55786   0.75207   0.00000  Uiso   1.00
C1771  C     0.28593   0.60080   0.75601   0.00000  Uiso   1.00
C1772  C     0.22309   0.57990   0.71376   0.00000  Uiso   1.00
C1773  C     0.28120   0.68209   0.72401   0.00000  Uiso   1.00
C1774  C     0.27792   0.64048   0.68778   0.00000  Uiso   1.00
C1775  C     0.29489   0.57376   0.76713   0.00000  Uiso   1.00
C1776  C     0.31253   0.61802   0.73171   0.00000  Uiso   1.00
C1777  C     0.26973   0.61831   0.69710   0.00000  Uiso   1.00
C1778  C     0.29716   0.71175   0.71962   0.00000  Uiso   1.00
C1779  C     0.30208   0.68362   0.73044   0.00000  Uiso   1.00
C1780  C     0.22587   0.54625   0.69343   0.00000  Uiso   1.00
C1781  C     0.30181   0.63426   0.76842   0.00000  Uiso   1.00
C1782  C     0.30697   0.67684   0.75562   0.00000  Uiso   1.00
C1783  C     0.26632   0.56535   0.75962   0.00000  Uiso   1.00
C1784  C     0.28404   0.54433   0.73722   0.00000  Uiso   1.00
C1785  C     0.24637   0.55537   0.73138   0.00000  Uiso   1.00
C1786  C     0.26754   0.56320   0.69621   0.00000  Uiso   1.00
C1787  C     0.26287   0.65816   0.71866   0.00000  Uiso   1.00
C1788  C     0.30080   0.58891   0.72145   0.00000  Uiso   1.00
C1789  C     0.32010   0.70073   0.72188   0.00000  Uiso   1.00
C1790  C     0.28986   0.68462   0.68944   0.00000  Uiso   1.00
C1791  C     0.29805   0.64624   0.69725   0.00000  Uiso   1.00
C1792  C     0.26410   0.56053   0.72112   0.00000  Uiso   1.00
C1793  C     0.31499   0.54519   0.76578   0.00000  Uiso   1.00
C1794  C     0.30532   0.60953   0.75594   0.00000  Uiso   1.00
C1795  C     0.31281   0.66247   0.71871   0.00000  Uiso   1.00
C1796  C     0.27071   0.61866   0.72142   0.00000  Uiso   1.00
C1797  C     0.31367   0.57235   0.72894   0.00000  Uiso   1.00
C1798  C     0.30947   0.66849   0.69613   0.00000  Uiso   1.00
C1799  C     0.49857   0.66655   0.78541   0.00000  Uiso   1.00
C1800  C     0.25314   0.54734   0.75221   0.00000  Uiso   1.00
C1801  C     0.19956   0.59215   0.68391   0.00000  Uiso   1.00
C1802  C     0.24528   0.67096   0.71091   0.00000  Uiso   1.00
C1803  C     0.28083   0.59832   0.73199   0.00000  Uiso   1.00
C1804  C     0.28479   0.69787   0.70965   0.00000  Uiso   1.00
C1805  C     0.29609   0.63496   0.72062   0.00000  Uiso   1.00
C1806  C     0.28146   0.64309   0.75693   0.00000  Uiso   1.00
C1807  C     0.27175   0.66094   0.69948   0.00000  Uiso   1.00
C1808  C     0.26432   0.58052   0.73783   0.00000  Uiso   1.00
C1809  C     0.28285   0.55867   0.77753   0.00000  Uiso   1.00
C1810  C     0.27518   0.64072   0.73297   0.00000  Uiso   1.00
C1811  C     0.31013   0.73929   0.70976   0.00000  Uiso   1.00
C1812  C     0.40202   0.76580   0.65049   0.00000  Uiso   1.00
C1813  C     0.39946   0.83133   0.63795   0.00000  Uiso   1.00
C1814  C     0.37918   0.84613   0.64007   0.00000  Uiso   1.00
C1815  C     0.35471   0.81933   0.52339   0.00000  Uiso   1.00
C1816  C     0.43124   0.84684   0.51512   0.00000  Uiso   1.00
C1817  C     0.38398   0.82455   0.59065   0.00000  Uiso   1.00
C1818  C     0.45968   0.85875   0.54673   0.00000  Uiso   1.00
C1819  C     0.46705   0.79309   0.67530   0.00000  Uiso   1.00
C1820  C     0.44285   0.81351   0.59742   0.00000  Uiso   1.00
C1821  C     0.35497   0.84123   0.54449   0.00000  Uiso   1.00
C1822  C     0.40110   0.84574   0.53329   0.00000  Uiso   1.00
C1823  C     0.41684   0.80502   0.66619   0.00000  Uiso   1.00
C1824  C     0.33900   0.80018   0.53050   0.00000  Uiso   1.00
C1825  C     0.42982   0.83906   0.66776   0.00000  Uiso   1.00
C1826  C     0.41960   0.86872   0.54664   0.00000  Uiso   1.00
C1827  C     0.39855   0.85711   0.57226   0.00000  Uiso   1.00
C1828  C     0.47593   0.89142   0.54127   0.00000  Uiso   1.00
C1829  C     0.48057   0.85936   0.55462   0.00000  Uiso   1.00
C1830  C     0.42172   0.82690   0.58765   0.00000  Uiso   1.00
C1831  C     0.39674   0.79136   0.65565   0.00000  Uiso   1.00
C1832  C     0.48514   0.80974   0.67696   0.00000  Uiso   1.00
C1833  C     0.38782   0.82755   0.67825   0.00000  Uiso   1.00
C1834  C     0.33031   0.84741   0.51050   0.00000  Uiso   1.00
C1835  C     0.37872   0.79016   0.67283   0.00000  Uiso   1.00
C1836  C     0.33263   0.74864   0.66236   0.00000  Uiso   1.00
C1837  C     0.43650   0.86813   0.56553   0.00000  Uiso   1.00
C1838  C     0.36902   0.82760   0.55895   0.00000  Uiso   1.00
C1839  C     0.48593   0.85914   0.57699   0.00000  Uiso   1.00
C1840  C     0.40899   0.81503   0.56726   0.00000  Uiso   1.00
C1841  C     0.36993   0.80406   0.62494   0.00000  Uiso   1.00
C1842  C     0.36127   0.84598   0.62195   0.00000  Uiso   1.00
C1843  C     0.42544   0.85343   0.58553   0.00000  Uiso   1.00
C1844  C     0.39400   0.86250   0.59553   0.00000  Uiso   1.00
C1845  C     0.35640   0.80776   0.57056   0.00000  Uiso   1.00
C1846  C     0.40847   0.82724   0.66269   0.00000  Uiso   1.00
C1847  C     0.32545   0.84373   0.57558   0.00000  Uiso   1.00
C1848  C     0.36238   0.85909   0.52873   0.00000  Uiso   1.00
C1849  C     0.44269   0.84640   0.54426   0.00000  Uiso   1.00
C1850  C     0.32058   0.72610   0.66088   0.00000  Uiso   1.00
C1851  C     0.49215   0.87869   0.54929   0.00000  Uiso   1.00
C1852  C     0.46566   0.85868   0.51720   0.00000  Uiso   1.00
C1853  C     0.40820   0.84571   0.61816   0.00000  Uiso   1.00
C1854  C     0.39752   0.75529   0.67365   0.00000  Uiso   1.00
C1855  C     0.34158   0.79094   0.60819   0.00000  Uiso   1.00
C1856  C     0.34564   0.81214   0.59421   0.00000  Uiso   1.00
C1857  C     0.39624   0.82238   0.54720   0.00000  Uiso   1.00
C1858  C     0.33260   0.83415   0.55296   0.00000  Uiso   1.00
C1859  C     0.48875   0.84248   0.54435   0.00000  Uiso   1.00
C1860  C     0.34694   0.82660   0.50521   0.00000  Uiso   1.00
C1861  C     0.36402   0.78011   0.61542   0.00000  Uiso   1.00
C1862  C     0.48465   0.84331   0.52141   0.00000  Uiso   1.00
C1863  C     0.36377   0.72698   0.67546   0.00000  Uiso   1.00
C1864  C     0.33003   0.79909   0.50701   0.00000  Uiso   1.00
C1865  C     0.32934   0.81003   0.54705   0.00000  Uiso   1.00
C1866  C     0.38910   0.80410   0.57775   0.00000  Uiso   1.00
C1867  C     0.47559   0.76981   0.67580   0.00000  Uiso   1.00
C1868  C     0.49843   0.85321   0.66478   0.00000  Uiso   1.00
C1869  C     0.46466   0.84401   0.59192   0.00000  Uiso   1.00
C1870  C     0.39325   0.80580   0.63370   0.00000  Uiso   1.00
C1871  C     0.32802   0.77604   0.59240   0.00000  Uiso   1.00
C1872  C     0.39781   0.86468   0.54793   0.00000  Uiso   1.00
C1873  C     0.44272   0.85765   0.59785   0.00000  Uiso   1.00
C1874  C     0.38737   0.85211   0.51353   0.00000  Uiso   1.00
C1875  C     0.42285   0.84949   0.53589   0.00000  Uiso   1.00
C1876  C     0.33980   0.78161   0.67402   0.00000  Uiso   1.00
C1877  C     0.46399   0.87488   0.53326   0.00000  Uiso   1.00
C1878  C     0.32476   0.82601   0.59165   0.00000  Uiso   1.00
C1879  C     0.40836   0.80288   0.61568   0.00000  Uiso   1.00
C1880  C     0.37654   0.81099   0.51238   0.00000  Uiso   1.00
C1881  C     0.40544   0.82566   0.60320   0.00000  Uiso   1.00
C1882  C     0.49074   0.82532   0.65629   0.00000  Uiso   1.00
C1883  C     0.35891   0.78836   0.65665   0.00000  Uiso   1.00
C1884  C     0.46104   0.82110   0.58021   0.00000  Uiso   1.00
C1885  C     0.45129   0.84218   0.52267   0.00000  Uiso   1.00
C1886  C     0.48830   0.87579   0.59370   0.00000  Uiso   1.00
C1887  C     0.37918   0.84488   0.57621   0.00000  Uiso   1.00
C1888  C     0.45581   0.82044   0.55401   0.00000  Uiso   1.00
C1889  C     0.36524   0.82368   0.60826   0.00000  Uiso   1.00
C1890  C     0.35599   0.81006   0.64614   0.00000  Uiso   1.00
C1891  C     0.30819   0.71540   0.68025   0.00000  Uiso   1.00
C1892  C     0.19343   0.55412   0.60025   0.00000  Uiso   1.00
C1893  C     0.16747   0.56294   0.50427   0.00000  Uiso   1.00
C1894  C     0.20505   0.59007   0.53329   0.00000  Uiso   1.00
C1895  C     0.22181   0.58836   0.65063   0.00000  Uiso   1.00
C1896  C     0.21891   0.64925   0.63801   0.00000  Uiso   1.00
C1897  C     0.20095   0.66742   0.64194   0.00000  Uiso   1.00
C1898  C     0.28491   0.69470   0.67167   0.00000  Uiso   1.00
C1899  C     0.17217   0.54318   0.56594   0.00000  Uiso   1.00
C1900  C     0.17586   0.59781   0.53518   0.00000  Uiso   1.00
C1901  C     0.26753   0.70918   0.67842   0.00000  Uiso   1.00
C1902  C     0.17114   0.56050   0.58695   0.00000  Uiso   1.00
C1903  C     0.17791   0.64004   0.52398   0.00000  Uiso   1.00
C1904  C     0.20927   0.57171   0.61101   0.00000  Uiso   1.00
C1905  C     0.17579   0.58829   0.51087   0.00000  Uiso   1.00
C1906  C     0.20644   0.65111   0.59623   0.00000  Uiso   1.00
C1907  C     0.20263   0.54437   0.52804   0.00000  Uiso   1.00
C1908  C     0.17682   0.66233   0.54408   0.00000  Uiso   1.00
C1909  C     0.22414   0.66271   0.52702   0.00000  Uiso   1.00
C1910  C     0.16295   0.62049   0.53133   0.00000  Uiso   1.00
C1911  C     0.19958   0.69808   0.54472   0.00000  Uiso   1.00
C1912  C     0.21643   0.67843   0.57927   0.00000  Uiso   1.00
C1913  C     0.24577   0.57750   0.64675   0.00000  Uiso   1.00
C1914  C     0.20998   0.55270   0.64384   0.00000  Uiso   1.00
C1915  C     0.23938   0.55216   0.65012   0.00000  Uiso   1.00
C1916  C     0.23773   0.71321   0.53660   0.00000  Uiso   1.00
C1917  C     0.24525   0.64677   0.58248   0.00000  Uiso   1.00
C1918  C     0.21805   0.61337   0.65630   0.00000  Uiso   1.00
C1919  C     0.19788   0.60814   0.67021   0.00000  Uiso   1.00
C1920  C     0.20147   0.57260   0.63413   0.00000  Uiso   1.00
C1921  C     0.18860   0.65197   0.56044   0.00000  Uiso   1.00
C1922  C     0.22991   0.63319   0.56055   0.00000  Uiso   1.00
C1923  C     0.18921   0.62103   0.62654   0.00000  Uiso   1.00
C1924  C     0.19067   0.70584   0.56797   0.00000  Uiso   1.00
C1925  C     0.24686   0.71017   0.66343   0.00000  Uiso   1.00
C1926  C     0.21493   0.68264   0.60100   0.00000  Uiso   1.00
C1927  C     0.22635   0.70462   0.60931   0.00000  Uiso   1.00
C1928  C     0.17408   0.63051   0.56947   0.00000  Uiso   1.00
C1929  C     0.19451   0.56603   0.53981   0.00000  Uiso   1.00
C1930  C     0.18488   0.68535   0.58444   0.00000  Uiso   1.00
C1931  C     0.21561   0.68863   0.64846   0.00000  Uiso   1.00
C1932  C     0.18766   0.68062   0.52950   0.00000  Uiso   1.00
C1933  C     0.21680   0.57574   0.67217   0.00000  Uiso   1.00
C1934  C     0.16715   0.63345   0.59419   0.00000  Uiso   1.00
C1935  C     0.20781   0.54805   0.57959   0.00000  Uiso   1.00
C1936  C     0.21385   0.64552   0.54527   0.00000  Uiso   1.00
C1937  C     0.16660   0.64625   0.50564   0.00000  Uiso   1.00
C1938  C     0.18378   0.60192   0.61609   0.00000  Uiso   1.00
C1939  C     0.15325   0.62487   0.50883   0.00000  Uiso   1.00
C1940  C     0.20674   0.56594   0.56028   0.00000  Uiso   1.00
C1941  C     0.15523   0.55316   0.52457   0.00000  Uiso   1.00
C1942  C     0.20808   0.55391   0.66968   0.00000  Uiso   1.00
C1943  C     0.21443   0.62514   0.63379   0.00000  Uiso   1.00
C1944  C     0.21621   0.69261   0.55806   0.00000  Uiso   1.00
C1945  C     0.26532   0.58333   0.66316   0.00000  Uiso   1.00
C1946  C     0.20856   0.67478   0.51629   0.00000  Uiso   1.00
C1947  C     0.26870   0.64439   0.66501   0.00000  Uiso   1.00
C1948  C     0.19140   0.68469   0.60474   0.00000  Uiso   1.00
C1949  C     0.30532   0.69500   0.66548   0.00000  Uiso   1.00
C1950  C     0.23089   0.62352   0.61568   0.00000  Uiso   1.00
C1951  C     0.19949   0.63246   0.51150   0.00000  Uiso   1.00
C1952  C     0.27958   0.68125   0.64920   0.00000  Uiso   1.00
C1953  C     0.24664   0.70538   0.62416   0.00000  Uiso   1.00
C1954  C     0.23095   0.64431   0.59984   0.00000  Uiso   1.00
C1955  C     0.21221   0.62537   0.53238   0.00000  Uiso   1.00
C1956  C     0.19888   0.66653   0.57896   0.00000  Uiso   1.00
C1957  C     0.18332   0.59060   0.63662   0.00000  Uiso   1.00
C1958  C     0.16959   0.56015   0.54525   0.00000  Uiso   1.00
C1959  C     0.24134   0.69231   0.64643   0.00000  Uiso   1.00
C1960  C     0.23247   0.56154   0.60930   0.00000  Uiso   1.00
C1961  C     0.18482   0.64225   0.61031   0.00000  Uiso   1.00
C1962  C     0.25399   0.62423   0.62900   0.00000  Uiso   1.00
C1963  C     0.23734   0.74757   0.51463   0.00000  Uiso   1.00
C1964  C     0.31573   0.75633   0.60148   0.00000  Uiso   1.00
C1965  C     0.30185   0.75931   0.52556   0.00000  Uiso   1.00
C1966  C     0.25792   0.75131   0.50675   0.00000  Uiso   1.00
C1967  C     0.29465   0.73562   0.57315   0.00000  Uiso   1.00
C1968  C     0.28612   0.77738   0.57988   0.00000  Uiso   1.00
C1969  C     0.22868   0.76508   0.53162   0.00000  Uiso   1.00
C1970  C     0.31109   0.72660   0.64009   0.00000  Uiso   1.00
C1971  C     0.20746   0.72094   0.53625   0.00000  Uiso   1.00
C1972  C     0.29330   0.75352   0.58743   0.00000  Uiso   1.00
C1973  C     0.31267   0.79364   0.55278   0.00000  Uiso   1.00
C1974  C     0.26635   0.79885   0.51531   0.00000  Uiso   1.00
C1975  C     0.24315   0.72895   0.64834   0.00000  Uiso   1.00
C1976  C     0.29109   0.74232   0.63852   0.00000  Uiso   1.00
C1977  C     0.30204   0.80440   0.61781   0.00000  Uiso   1.00
C1978  C     0.28167   0.74779   0.66742   0.00000  Uiso   1.00
C1979  C     0.22603   0.72456   0.52024   0.00000  Uiso   1.00
C1980  C     0.30410   0.81082   0.59204   0.00000  Uiso   1.00
C1981  C     0.26245   0.74602   0.58342   0.00000  Uiso   1.00
C1982  C     0.26549   0.78706   0.59428   0.00000  Uiso   1.00
C1983  C     0.28107   0.72451   0.55652   0.00000  Uiso   1.00
C1984  C     0.24513   0.73184   0.55117   0.00000  Uiso   1.00
C1985  C     0.27623   0.74424   0.52028   0.00000  Uiso   1.00
C1986  C     0.27192   0.78389   0.61816   0.00000  Uiso   1.00
C1987  C     0.24743   0.72945   0.62736   0.00000  Uiso   1.00
C1988  C     0.30254   0.77164   0.54401   0.00000  Uiso   1.00
C1989  C     0.28313   0.72696   0.68052   0.00000  Uiso   1.00
C1990  C     0.22628   0.75529   0.55487   0.00000  Uiso   1.00
C1991  C     0.29923   0.82438   0.51714   0.00000  Uiso   1.00
C1992  C     0.26612   0.74002   0.54471   0.00000  Uiso   1.00
C1993  C     0.30925   0.78955   0.57926   0.00000  Uiso   1.00
C1994  C     0.31209   0.83814   0.54144   0.00000  Uiso   1.00
C1995  C     0.26763   0.80019   0.54006   0.00000  Uiso   1.00
C1996  C     0.29863   0.76568   0.67712   0.00000  Uiso   1.00
C1997  C     0.24698   0.72610   0.57553   0.00000  Uiso   1.00
C1998  C     0.29403   0.78277   0.62889   0.00000  Uiso   1.00
C1999  C     0.24337   0.77333   0.56329   0.00000  Uiso   1.00
C2000  C     0.28031   0.77686   0.55613   0.00000  Uiso   1.00
C2001  C     0.30509   0.76148   0.63044   0.00000  Uiso   1.00
C2002  C     0.22679   0.72565   0.59368   0.00000  Uiso   1.00
C2003  C     0.30133   0.81872   0.54048   0.00000  Uiso   1.00
C2004  C     0.24842   0.75731   0.60158   0.00000  Uiso   1.00
C2005  C     0.26587   0.76028   0.56119   0.00000  Uiso   1.00
C2006  C     0.27771   0.73978   0.59767   0.00000  Uiso   1.00
C2007  C     0.23436   0.74211   0.60915   0.00000  Uiso   1.00
C2008  C     0.26952   0.74038   0.62306   0.00000  Uiso   1.00
C2009  C     0.26160   0.75996   0.62137   0.00000  Uiso   1.00
C2010  C     0.35730   0.28485   0.70491   0.00000  Uiso   1.00
C2011  C     0.43078   0.31255   0.69206   0.00000  Uiso   1.00
C2012  C     0.49622   0.54070   0.81739   0.00000  Uiso   1.00
C2013  C     0.45537   0.32775   0.72517   0.00000  Uiso   1.00
C2014  C     0.32963   0.35159   0.74600   0.00000  Uiso   1.00
C2015  C     0.34646   0.32947   0.69203   0.00000  Uiso   1.00
C2016  C     0.35723   0.30295   0.72349   0.00000  Uiso   1.00
C2017  C     0.45711   0.28465   0.68715   0.00000  Uiso   1.00
C2018  C     0.40147   0.30893   0.71237   0.00000  Uiso   1.00
C2019  C     0.41963   0.33252   0.72367   0.00000  Uiso   1.00
C2020  C     0.37655   0.34294   0.72304   0.00000  Uiso   1.00
C2021  C     0.44848   0.26342   0.69467   0.00000  Uiso   1.00
C2022  C     0.48052   0.32542   0.73188   0.00000  Uiso   1.00
C2023  C     0.33197   0.34855   0.70105   0.00000  Uiso   1.00
C2024  C     0.41700   0.35465   0.71420   0.00000  Uiso   1.00
C2025  C     0.44953   0.34033   0.79162   0.00000  Uiso   1.00
C2026  C     0.33080   0.31391   0.68693   0.00000  Uiso   1.00
C2027  C     0.43722   0.33471   0.74048   0.00000  Uiso   1.00
C2028  C     0.48521   0.32007   0.75246   0.00000  Uiso   1.00
C2029  C     0.36977   0.35084   0.74607   0.00000  Uiso   1.00
C2030  C     0.42478   0.31543   0.75987   0.00000  Uiso   1.00
C2031  C     0.40852   0.35312   0.78771   0.00000  Uiso   1.00
C2032  C     0.44427   0.35882   0.74874   0.00000  Uiso   1.00
C2033  C     0.36531   0.32432   0.70996   0.00000  Uiso   1.00
C2034  C     0.44182   0.30860   0.72166   0.00000  Uiso   1.00
C2035  C     0.49053   0.34808   0.72476   0.00000  Uiso   1.00
C2036  C     0.46391   0.32644   0.69294   0.00000  Uiso   1.00
C2037  C     0.47525   0.28857   0.69885   0.00000  Uiso   1.00
C2038  C     0.39353   0.28989   0.72706   0.00000  Uiso   1.00
C2039  C     0.48902   0.30655   0.72521   0.00000  Uiso   1.00
C2040  C     0.34643   0.29247   0.68723   0.00000  Uiso   1.00
C2041  C     0.42718   0.25403   0.68689   0.00000  Uiso   1.00
C2042  C     0.44675   0.26480   0.71910   0.00000  Uiso   1.00
C2043  C     0.48981   0.31017   0.69877   0.00000  Uiso   1.00
C2044  C     0.46560   0.30876   0.76726   0.00000  Uiso   1.00
C2045  C     0.39704   0.32976   0.72369   0.00000  Uiso   1.00
C2046  C     0.44629   0.32497   0.77012   0.00000  Uiso   1.00
C2047  C     0.38762   0.31517   0.69180   0.00000  Uiso   1.00
C2048  C     0.42311   0.31274   0.71281   0.00000  Uiso   1.00
C2049  C     0.46037   0.34176   0.70933   0.00000  Uiso   1.00
C2050  C     0.47726   0.28353   0.72385   0.00000  Uiso   1.00
C2051  C     0.37773   0.27870   0.69294   0.00000  Uiso   1.00
C2052  C     0.44910   0.30545   0.69965   0.00000  Uiso   1.00
C2053  C     0.48426   0.34566   0.76945   0.00000  Uiso   1.00
C2054  C     0.46013   0.35354   0.77481   0.00000  Uiso   1.00
C2055  C     0.45357   0.28603   0.73094   0.00000  Uiso   1.00
C2056  C     0.49271   0.53432   0.85709   0.00000  Uiso   1.00
C2057  C     0.49594   0.39708   0.78070   0.00000  Uiso   1.00
C2058  C     0.36863   0.37534   0.77980   0.00000  Uiso   1.00
C2059  C     0.39692   0.47650   0.81442   0.00000  Uiso   1.00
C2060  C     0.37688   0.49024   0.81944   0.00000  Uiso   1.00
C2061  C     0.46072   0.51239   0.85101   0.00000  Uiso   1.00
C2062  C     0.34840   0.36489   0.74449   0.00000  Uiso   1.00
C2063  C     0.44294   0.53042   0.85252   0.00000  Uiso   1.00
C2064  C     0.47771   0.38093   0.74996   0.00000  Uiso   1.00
C2065  C     0.34848   0.38093   0.76635   0.00000  Uiso   1.00
C2066  C     0.38862   0.39421   0.79202   0.00000  Uiso   1.00
C2067  C     0.46840   0.41849   0.76065   0.00000  Uiso   1.00
C2068  C     0.38187   0.46959   0.76722   0.00000  Uiso   1.00
C2069  C     0.40041   0.43121   0.77556   0.00000  Uiso   1.00
C2070  C     0.33026   0.52818   0.74566   0.00000  Uiso   1.00
C2071  C     0.38656   0.36295   0.71472   0.00000  Uiso   1.00
C2072  C     0.44130   0.45727   0.77046   0.00000  Uiso   1.00
C2073  C     0.47326   0.39578   0.76877   0.00000  Uiso   1.00
C2074  C     0.45268   0.42506   0.83467   0.00000  Uiso   1.00
C2075  C     0.46480   0.50856   0.80797   0.00000  Uiso   1.00
C2076  C     0.43178   0.48423   0.79813   0.00000  Uiso   1.00
C2077  C     0.33877   0.50753   0.75847   0.00000  Uiso   1.00
C2078  C     0.44851   0.51777   0.79081   0.00000  Uiso   1.00
C2079  C     0.47255   0.38617   0.81837   0.00000  Uiso   1.00
C2080  C     0.47976   0.44539   0.79986   0.00000  Uiso   1.00
C2081  C     0.36836   0.42985   0.74419   0.00000  Uiso   1.00
C2082  C     0.36777   0.44660   0.80235   0.00000  Uiso   1.00
C2083  C     0.42133   0.52661   0.84340   0.00000  Uiso   1.00
C2084  C     0.36165   0.48495   0.79890   0.00000  Uiso   1.00
C2085  C     0.43932   0.38531   0.76191   0.00000  Uiso   1.00
C2086  C     0.39398   0.50607   0.77643   0.00000  Uiso   1.00
C2087  C     0.40513   0.52626   0.79008   0.00000  Uiso   1.00
C2088  C     0.44373   0.43192   0.77162   0.00000  Uiso   1.00
C2089  C     0.35494   0.45170   0.74419   0.00000  Uiso   1.00
C2090  C     0.37453   0.38201   0.72255   0.00000  Uiso   1.00
C2091  C     0.36452   0.50748   0.76006   0.00000  Uiso   1.00
C2092  C     0.38675   0.51000   0.82594   0.00000  Uiso   1.00
C2093  C     0.46037   0.37153   0.73368   0.00000  Uiso   1.00
C2094  C     0.44266   0.46011   0.79430   0.00000  Uiso   1.00
C2095  C     0.42644   0.37121   0.72688   0.00000  Uiso   1.00
C2096  C     0.47552   0.48787   0.78894   0.00000  Uiso   1.00
C2097  C     0.44322   0.42650   0.79332   0.00000  Uiso   1.00
C2098  C     0.32711   0.49015   0.75494   0.00000  Uiso   1.00
C2099  C     0.42608   0.37376   0.80157   0.00000  Uiso   1.00
C2100  C     0.40867   0.39436   0.73658   0.00000  Uiso   1.00
C2101  C     0.34445   0.40840   0.75435   0.00000  Uiso   1.00
C2102  C     0.40835   0.48670   0.79530   0.00000  Uiso   1.00
C2103  C     0.42104   0.42159   0.76603   0.00000  Uiso   1.00
C2104  C     0.34128   0.43569   0.78770   0.00000  Uiso   1.00
C2105  C     0.49113   0.36460   0.76190   0.00000  Uiso   1.00
C2106  C     0.34474   0.45496   0.77244   0.00000  Uiso   1.00
C2107  C     0.38591   0.37071   0.76210   0.00000  Uiso   1.00
C2108  C     0.33201   0.47785   0.73324   0.00000  Uiso   1.00
C2109  C     0.36882   0.40799   0.75490   0.00000  Uiso   1.00
C2110  C     0.36229   0.42417   0.79585   0.00000  Uiso   1.00
C2111  C     0.33433   0.44806   0.72829   0.00000  Uiso   1.00
C2112  C     0.38410   0.39030   0.74427   0.00000  Uiso   1.00
C2113  C     0.33457   0.37497   0.70237   0.00000  Uiso   1.00
C2114  C     0.38976   0.44762   0.75731   0.00000  Uiso   1.00
C2115  C     0.32219   0.48928   0.79175   0.00000  Uiso   1.00
C2116  C     0.42577   0.37228   0.75047   0.00000  Uiso   1.00
C2117  C     0.38969   0.45162   0.81449   0.00000  Uiso   1.00
C2118  C     0.32937   0.42143   0.77064   0.00000  Uiso   1.00
C2119  C     0.32597   0.50788   0.78061   0.00000  Uiso   1.00
C2120  C     0.43227   0.49394   0.82674   0.00000  Uiso   1.00
C2121  C     0.44340   0.49643   0.77958   0.00000  Uiso   1.00
C2122  C     0.44938   0.46343   0.84454   0.00000  Uiso   1.00
C2123  C     0.46510   0.42691   0.80741   0.00000  Uiso   1.00
C2124  C     0.36863   0.53304   0.79530   0.00000  Uiso   1.00
C2125  C     0.43489   0.44228   0.82872   0.00000  Uiso   1.00
C2126  C     0.37983   0.41363   0.77835   0.00000  Uiso   1.00
C2127  C     0.33142   0.51579   0.80365   0.00000  Uiso   1.00
C2128  C     0.37100   0.50528   0.78383   0.00000  Uiso   1.00
C2129  C     0.48273   0.40746   0.80641   0.00000  Uiso   1.00
C2130  C     0.48068   0.51488   0.84234   0.00000  Uiso   1.00
C2131  C     0.41011   0.36753   0.76875   0.00000  Uiso   1.00
C2132  C     0.46560   0.46799   0.80180   0.00000  Uiso   1.00
C2133  C     0.38970   0.53106   0.81042   0.00000  Uiso   1.00
C2134  C     0.32454   0.47235   0.77539   0.00000  Uiso   1.00
C2135  C     0.40489   0.44752   0.79536   0.00000  Uiso   1.00
C2136  C     0.45581   0.50028   0.82921   0.00000  Uiso   1.00
C2137  C     0.42731   0.52752   0.80063   0.00000  Uiso   1.00
C2138  C     0.40448   0.47356   0.77502   0.00000  Uiso   1.00
C2139  C     0.49086   0.47155   0.83477   0.00000  Uiso   1.00
C2140  C     0.42686   0.39884   0.77906   0.00000  Uiso   1.00
C2141  C     0.45916   0.37837   0.77689   0.00000  Uiso   1.00
C2142  C     0.33785   0.40158   0.73014   0.00000  Uiso   1.00
C2143  C     0.34593   0.53633   0.80687   0.00000  Uiso   1.00
C2144  C     0.35017   0.38084   0.72310   0.00000  Uiso   1.00
C2145  C     0.48446   0.51951   0.81695   0.00000  Uiso   1.00
C2146  C     0.41990   0.51456   0.82126   0.00000  Uiso   1.00
C2147  C     0.41115   0.38378   0.78517   0.00000  Uiso   1.00
C2148  C     0.36352   0.46355   0.78490   0.00000  Uiso   1.00
C2149  C     0.42925   0.44307   0.80361   0.00000  Uiso   1.00
C2150  C     0.46608   0.47557   0.82699   0.00000  Uiso   1.00
C2151  C     0.44855   0.38698   0.79918   0.00000  Uiso   1.00
C2152  C     0.33731   0.48438   0.80990   0.00000  Uiso   1.00
C2153  C     0.43471   0.40343   0.79890   0.00000  Uiso   1.00
C2154  C     0.29716   0.35569   0.71962   0.00000  Uiso   1.00
C2155  C     0.32010   0.34466   0.72188   0.00000  Uiso   1.00
C2156  C     0.28986   0.32855   0.68944   0.00000  Uiso   1.00
C2157  C     0.30947   0.31242   0.69613   0.00000  Uiso   1.00
C2158  C     0.29715   0.40338   0.70239   0.00000  Uiso   1.00
C2159  C     0.25570   0.40089   0.68592   0.00000  Uiso   1.00
C2160  C     0.30160   0.38369   0.74959   0.00000  Uiso   1.00
C2161  C     0.25175   0.48928   0.69007   0.00000  Uiso   1.00
C2162  C     0.28753   0.42193   0.75877   0.00000  Uiso   1.00
C2163  C     0.27482   0.50644   0.72679   0.00000  Uiso   1.00
C2164  C     0.27798   0.46276   0.68631   0.00000  Uiso   1.00
C2165  C     0.31105   0.44072   0.72663   0.00000  Uiso   1.00
C2166  C     0.22563   0.48369   0.70518   0.00000  Uiso   1.00
C2167  C     0.24084   0.51671   0.72375   0.00000  Uiso   1.00
C2168  C     0.26852   0.43993   0.69623   0.00000  Uiso   1.00
C2169  C     0.29478   0.53103   0.71910   0.00000  Uiso   1.00
C2170  C     0.29848   0.50350   0.73192   0.00000  Uiso   1.00
C2171  C     0.24317   0.53911   0.71205   0.00000  Uiso   1.00
C2172  C     0.25708   0.51606   0.74165   0.00000  Uiso   1.00
C2173  C     0.30507   0.45654   0.77045   0.00000  Uiso   1.00
C2174  C     0.30945   0.50575   0.75229   0.00000  Uiso   1.00
C2175  C     0.31013   0.38322   0.70976   0.00000  Uiso   1.00
C2176  C     0.27036   0.53422   0.75226   0.00000  Uiso   1.00
C2177  C     0.29985   0.48570   0.78648   0.00000  Uiso   1.00
C2178  C     0.27438   0.39202   0.70026   0.00000  Uiso   1.00
C2179  C     0.26279   0.48424   0.72159   0.00000  Uiso   1.00
C2180  C     0.30226   0.41768   0.72227   0.00000  Uiso   1.00
C2181  C     0.31890   0.52482   0.72433   0.00000  Uiso   1.00
C2182  C     0.29722   0.46808   0.69512   0.00000  Uiso   1.00
C2183  C     0.26760   0.38599   0.72471   0.00000  Uiso   1.00
C2184  C     0.30842   0.43329   0.75948   0.00000  Uiso   1.00
C2185  C     0.30968   0.48178   0.71965   0.00000  Uiso   1.00
C2186  C     0.25035   0.42626   0.68634   0.00000  Uiso   1.00
C2187  C     0.27078   0.44142   0.72218   0.00000  Uiso   1.00
C2188  C     0.31418   0.39656   0.72989   0.00000  Uiso   1.00
C2189  C     0.28410   0.49088   0.76847   0.00000  Uiso   1.00
C2190  C     0.20842   0.49410   0.69261   0.00000  Uiso   1.00
C2191  C     0.24541   0.49268   0.71093   0.00000  Uiso   1.00
C2192  C     0.28224   0.42283   0.73560   0.00000  Uiso   1.00
C2193  C     0.23630   0.43097   0.70799   0.00000  Uiso   1.00
C2194  C     0.28269   0.51295   0.70808   0.00000  Uiso   1.00
C2195  C     0.29554   0.45981   0.71896   0.00000  Uiso   1.00
C2196  C     0.24536   0.43738   0.72728   0.00000  Uiso   1.00
C2197  C     0.28556   0.46779   0.75837   0.00000  Uiso   1.00
C2198  C     0.27155   0.48410   0.69744   0.00000  Uiso   1.00
C2199  C     0.30733   0.52220   0.77068   0.00000  Uiso   1.00
C2200  C     0.26821   0.40602   0.73854   0.00000  Uiso   1.00
C2201  C     0.28444   0.53321   0.77272   0.00000  Uiso   1.00
C2202  C     0.27511   0.46397   0.73021   0.00000  Uiso   1.00
C2203  C     0.41379   0.21433   0.51433   0.00000  Uiso   1.00
C2204  C     0.49149   0.22132   0.60600   0.00000  Uiso   1.00
C2205  C     0.39044   0.33201   0.67317   0.00000  Uiso   1.00
C2206  C     0.47576   0.22239   0.52629   0.00000  Uiso   1.00
C2207  C     0.38025   0.23049   0.53215   0.00000  Uiso   1.00
C2208  C     0.39860   0.29957   0.63950   0.00000  Uiso   1.00
C2209  C     0.37536   0.31241   0.64062   0.00000  Uiso   1.00
C2210  C     0.43199   0.22978   0.50794   0.00000  Uiso   1.00
C2211  C     0.47861   0.20607   0.57100   0.00000  Uiso   1.00
C2212  C     0.46666   0.24337   0.58207   0.00000  Uiso   1.00
C2213  C     0.38387   0.28615   0.59414   0.00000  Uiso   1.00
C2214  C     0.40187   0.25243   0.59496   0.00000  Uiso   1.00
C2215  C     0.40374   0.22508   0.53660   0.00000  Uiso   1.00
C2216  C     0.47060   0.25312   0.67611   0.00000  Uiso   1.00
C2217  C     0.47096   0.21962   0.59026   0.00000  Uiso   1.00
C2218  C     0.41882   0.26710   0.66719   0.00000  Uiso   1.00
C2219  C     0.42738   0.30438   0.66721   0.00000  Uiso   1.00
C2220  C     0.39660   0.25629   0.65776   0.00000  Uiso   1.00
C2221  C     0.48529   0.27507   0.68034   0.00000  Uiso   1.00
C2222  C     0.38589   0.29288   0.67956   0.00000  Uiso   1.00
C2223  C     0.37641   0.25540   0.67361   0.00000  Uiso   1.00
C2224  C     0.36934   0.25424   0.56769   0.00000  Uiso   1.00
C2225  C     0.37132   0.27052   0.62964   0.00000  Uiso   1.00
C2226  C     0.35980   0.31153   0.62137   0.00000  Uiso   1.00
C2227  C     0.44071   0.20966   0.58587   0.00000  Uiso   1.00
C2228  C     0.44833   0.25503   0.59370   0.00000  Uiso   1.00
C2229  C     0.35291   0.27626   0.57034   0.00000  Uiso   1.00
C2230  C     0.48777   0.20550   0.53180   0.00000  Uiso   1.00
C2231  C     0.46174   0.19211   0.55678   0.00000  Uiso   1.00
C2232  C     0.42430   0.19665   0.55089   0.00000  Uiso   1.00
C2233  C     0.40755   0.28780   0.66570   0.00000  Uiso   1.00
C2234  C     0.45209   0.21111   0.52108   0.00000  Uiso   1.00
C2235  C     0.32234   0.31419   0.57737   0.00000  Uiso   1.00
C2236  C     0.47989   0.23906   0.54305   0.00000  Uiso   1.00
C2237  C     0.41025   0.21629   0.55550   0.00000  Uiso   1.00
C2238  C     0.42243   0.23996   0.58978   0.00000  Uiso   1.00
C2239  C     0.34194   0.25659   0.60863   0.00000  Uiso   1.00
C2240  C     0.44388   0.20537   0.54399   0.00000  Uiso   1.00
C2241  C     0.32446   0.25973   0.62855   0.00000  Uiso   1.00
C2242  C     0.34347   0.27783   0.59562   0.00000  Uiso   1.00
C2243  C     0.48526   0.25402   0.57981   0.00000  Uiso   1.00
C2244  C     0.33459   0.29932   0.55348   0.00000  Uiso   1.00
C2245  C     0.36051   0.33459   0.67003   0.00000  Uiso   1.00
C2246  C     0.36512   0.23918   0.58177   0.00000  Uiso   1.00
C2247  C     0.42558   0.25346   0.51100   0.00000  Uiso   1.00
C2248  C     0.36352   0.24885   0.61907   0.00000  Uiso   1.00
C2249  C     0.44616   0.26376   0.54191   0.00000  Uiso   1.00
C2250  C     0.49219   0.21980   0.55129   0.00000  Uiso   1.00
C2251  C     0.33250   0.27352   0.55339   0.00000  Uiso   1.00
C2252  C     0.38942   0.26749   0.57746   0.00000  Uiso   1.00
C2253  C     0.47789   0.23338   0.67790   0.00000  Uiso   1.00
C2254  C     0.32040   0.31007   0.60969   0.00000  Uiso   1.00
C2255  C     0.39578   0.27616   0.63438   0.00000  Uiso   1.00
C2256  C     0.32973   0.24212   0.59279   0.00000  Uiso   1.00
C2257  C     0.37628   0.23548   0.50701   0.00000  Uiso   1.00
C2258  C     0.37493   0.25199   0.54228   0.00000  Uiso   1.00
C2259  C     0.38059   0.24043   0.60044   0.00000  Uiso   1.00
C2260  C     0.33026   0.33884   0.62918   0.00000  Uiso   1.00
C2261  C     0.42366   0.23543   0.56405   0.00000  Uiso   1.00
C2262  C     0.46037   0.24173   0.55770   0.00000  Uiso   1.00
C2263  C     0.40849   0.25415   0.53080   0.00000  Uiso   1.00
C2264  C     0.32263   0.29439   0.59457   0.00000  Uiso   1.00
C2265  C     0.40664   0.27287   0.61665   0.00000  Uiso   1.00
C2266  C     0.37662   0.27682   0.51251   0.00000  Uiso   1.00
C2267  C     0.39116   0.26922   0.53298   0.00000  Uiso   1.00
C2268  C     0.42303   0.25802   0.54976   0.00000  Uiso   1.00
C2269  C     0.48741   0.29370   0.66120   0.00000  Uiso   1.00
C2270  C     0.35915   0.25362   0.65748   0.00000  Uiso   1.00
C2271  C     0.42672   0.21829   0.59959   0.00000  Uiso   1.00
C2272  C     0.44048   0.22551   0.55480   0.00000  Uiso   1.00
C2273  C     0.45574   0.20560   0.60168   0.00000  Uiso   1.00
C2274  C     0.33607   0.31698   0.64512   0.00000  Uiso   1.00
C2275  C     0.36424   0.29461   0.66676   0.00000  Uiso   1.00
C2276  C     0.36370   0.28723   0.61061   0.00000  Uiso   1.00
C2277  C     0.42734   0.26266   0.62929   0.00000  Uiso   1.00
C2278  C     0.35579   0.27456   0.65059   0.00000  Uiso   1.00
C2279  C     0.33822   0.30306   0.62740   0.00000  Uiso   1.00
C2280  C     0.33213   0.28241   0.64141   0.00000  Uiso   1.00
C2281  C     0.35912   0.31773   0.65362   0.00000  Uiso   1.00
C2282  C     0.32058   0.37004   0.66088   0.00000  Uiso   1.00
C2283  C     0.30819   0.35933   0.68025   0.00000  Uiso   1.00
C2284  C     0.28491   0.33863   0.67167   0.00000  Uiso   1.00
C2285  C     0.49720   0.23771   0.64167   0.00000  Uiso   1.00
C2286  C     0.25156   0.31757   0.51303   0.00000  Uiso   1.00
C2287  C     0.27595   0.32628   0.54940   0.00000  Uiso   1.00
C2288  C     0.27532   0.28583   0.50800   0.00000  Uiso   1.00
C2289  C     0.31279   0.26253   0.55432   0.00000  Uiso   1.00
C2290  C     0.24023   0.33560   0.54800   0.00000  Uiso   1.00
C2291  C     0.28837   0.32590   0.62842   0.00000  Uiso   1.00
C2292  C     0.30126   0.32654   0.55526   0.00000  Uiso   1.00
C2293  C     0.23773   0.35715   0.53660   0.00000  Uiso   1.00
C2294  C     0.30557   0.26527   0.61798   0.00000  Uiso   1.00
C2295  C     0.25651   0.32954   0.56559   0.00000  Uiso   1.00
C2296  C     0.29955   0.26930   0.59245   0.00000  Uiso   1.00
C2297  C     0.30292   0.32222   0.57977   0.00000  Uiso   1.00
C2298  C     0.24073   0.31346   0.58543   0.00000  Uiso   1.00
C2299  C     0.22635   0.34855   0.60931   0.00000  Uiso   1.00
C2300  C     0.26633   0.34993   0.57636   0.00000  Uiso   1.00
C2301  C     0.29644   0.30485   0.61529   0.00000  Uiso   1.00
C2302  C     0.26535   0.30629   0.53756   0.00000  Uiso   1.00
C2303  C     0.28736   0.32496   0.51438   0.00000  Uiso   1.00
C2304  C     0.29868   0.29154   0.50865   0.00000  Uiso   1.00
C2305  C     0.30938   0.25366   0.57917   0.00000  Uiso   1.00
C2306  C     0.31115   0.30688   0.54649   0.00000  Uiso   1.00
C2307  C     0.30908   0.31235   0.52040   0.00000  Uiso   1.00
C2308  C     0.31986   0.31744   0.66558   0.00000  Uiso   1.00
C2309  C     0.28488   0.30890   0.59258   0.00000  Uiso   1.00
C2310  C     0.21621   0.33654   0.55806   0.00000  Uiso   1.00
C2311  C     0.26329   0.32366   0.59809   0.00000  Uiso   1.00
C2312  C     0.24559   0.31502   0.53395   0.00000  Uiso   1.00
C2313  C     0.30532   0.33894   0.66548   0.00000  Uiso   1.00
C2314  C     0.28826   0.28857   0.62601   0.00000  Uiso   1.00
C2315  C     0.28322   0.34121   0.53291   0.00000  Uiso   1.00
C2316  C     0.30290   0.28373   0.55026   0.00000  Uiso   1.00
C2317  C     0.27958   0.32519   0.64920   0.00000  Uiso   1.00
C2318  C     0.24664   0.34931   0.62416   0.00000  Uiso   1.00
C2319  C     0.31255   0.28905   0.65730   0.00000  Uiso   1.00
C2320  C     0.28091   0.28529   0.58164   0.00000  Uiso   1.00
C2321  C     0.26973   0.30616   0.51629   0.00000  Uiso   1.00
C2322  C     0.28378   0.34721   0.59572   0.00000  Uiso   1.00
C2323  C     0.27970   0.28346   0.55633   0.00000  Uiso   1.00
C2324  C     0.30756   0.34645   0.63913   0.00000  Uiso   1.00
C2325  C     0.28899   0.29651   0.64810   0.00000  Uiso   1.00
C2326  C     0.23734   0.39151   0.51463   0.00000  Uiso   1.00
C2327  C     0.20731   0.51392   0.66986   0.00000  Uiso   1.00
C2328  C     0.20612   0.41145   0.53009   0.00000  Uiso   1.00
C2329  C     0.22444   0.40878   0.65475   0.00000  Uiso   1.00
C2330  C     0.22038   0.48011   0.63956   0.00000  Uiso   1.00
C2331  C     0.19956   0.49093   0.64461   0.00000  Uiso   1.00
C2332  C     0.17500   0.42259   0.53194   0.00000  Uiso   1.00
C2333  C     0.26599   0.52804   0.67623   0.00000  Uiso   1.00
C2334  C     0.17810   0.45998   0.52345   0.00000  Uiso   1.00
C2335  C     0.20876   0.39139   0.61173   0.00000  Uiso   1.00
C2336  C     0.17660   0.40918   0.50902   0.00000  Uiso   1.00
C2337  C     0.20646   0.46977   0.59147   0.00000  Uiso   1.00
C2338  C     0.22205   0.43195   0.59626   0.00000  Uiso   1.00
C2339  C     0.22868   0.40901   0.53162   0.00000  Uiso   1.00
C2340  C     0.31109   0.37053   0.64009   0.00000  Uiso   1.00
C2341  C     0.29056   0.43320   0.67662   0.00000  Uiso   1.00
C2342  C     0.16658   0.51007   0.51328   0.00000  Uiso   1.00
C2343  C     0.20746   0.36487   0.53625   0.00000  Uiso   1.00
C2344  C     0.17867   0.48297   0.54285   0.00000  Uiso   1.00
C2345  C     0.23862   0.44660   0.66729   0.00000  Uiso   1.00
C2346  C     0.16279   0.44511   0.52941   0.00000  Uiso   1.00
C2347  C     0.24656   0.48255   0.66509   0.00000  Uiso   1.00
C2348  C     0.19957   0.52444   0.54406   0.00000  Uiso   1.00
C2349  C     0.27274   0.42600   0.66355   0.00000  Uiso   1.00
C2350  C     0.21999   0.49709   0.57598   0.00000  Uiso   1.00
C2351  C     0.24618   0.39838   0.64673   0.00000  Uiso   1.00
C2352  C     0.15962   0.50965   0.58459   0.00000  Uiso   1.00
C2353  C     0.14931   0.52848   0.52111   0.00000  Uiso   1.00
C2354  C     0.22190   0.43459   0.65312   0.00000  Uiso   1.00
C2355  C     0.20561   0.47362   0.67830   0.00000  Uiso   1.00
C2356  C     0.15156   0.48886   0.50612   0.00000  Uiso   1.00
C2357  C     0.29109   0.38626   0.63852   0.00000  Uiso   1.00
C2358  C     0.19120   0.43341   0.56759   0.00000  Uiso   1.00
C2359  C     0.28167   0.39172   0.66742   0.00000  Uiso   1.00
C2360  C     0.22603   0.36849   0.52024   0.00000  Uiso   1.00
C2361  C     0.19179   0.47386   0.56000   0.00000  Uiso   1.00
C2362  C     0.19103   0.44791   0.62788   0.00000  Uiso   1.00
C2363  C     0.19350   0.52797   0.56846   0.00000  Uiso   1.00
C2364  C     0.24860   0.53156   0.65834   0.00000  Uiso   1.00
C2365  C     0.18388   0.48910   0.62338   0.00000  Uiso   1.00
C2366  C     0.26245   0.38995   0.58342   0.00000  Uiso   1.00
C2367  C     0.21510   0.50500   0.59983   0.00000  Uiso   1.00
C2368  C     0.22679   0.52794   0.60776   0.00000  Uiso   1.00
C2369  C     0.17353   0.45118   0.56975   0.00000  Uiso   1.00
C2370  C     0.19417   0.38706   0.54315   0.00000  Uiso   1.00
C2371  C     0.18558   0.50899   0.58338   0.00000  Uiso   1.00
C2372  C     0.21317   0.50915   0.64839   0.00000  Uiso   1.00
C2373  C     0.24513   0.37577   0.55117   0.00000  Uiso   1.00
C2374  C     0.22605   0.46925   0.66099   0.00000  Uiso   1.00
C2375  C     0.24743   0.37338   0.62736   0.00000  Uiso   1.00
C2376  C     0.18640   0.50217   0.52769   0.00000  Uiso   1.00
C2377  C     0.28313   0.37089   0.68052   0.00000  Uiso   1.00
C2378  C     0.22628   0.39922   0.55487   0.00000  Uiso   1.00
C2379  C     0.22816   0.48779   0.61700   0.00000  Uiso   1.00
C2380  C     0.24211   0.42193   0.58813   0.00000  Uiso   1.00
C2381  C     0.16736   0.45704   0.59510   0.00000  Uiso   1.00
C2382  C     0.20251   0.37363   0.58221   0.00000  Uiso   1.00
C2383  C     0.21433   0.46797   0.54783   0.00000  Uiso   1.00
C2384  C     0.15706   0.48264   0.55350   0.00000  Uiso   1.00
C2385  C     0.19021   0.41153   0.57768   0.00000  Uiso   1.00
C2386  C     0.16573   0.46599   0.50712   0.00000  Uiso   1.00
C2387  C     0.18444   0.42442   0.61825   0.00000  Uiso   1.00
C2388  C     0.20283   0.39327   0.56405   0.00000  Uiso   1.00
C2389  C     0.21091   0.44799   0.57835   0.00000  Uiso   1.00
C2390  C     0.29863   0.40961   0.67712   0.00000  Uiso   1.00
C2391  C     0.24698   0.37004   0.57553   0.00000  Uiso   1.00
C2392  C     0.21604   0.44876   0.63444   0.00000  Uiso   1.00
C2393  C     0.21752   0.50978   0.54867   0.00000  Uiso   1.00
C2394  C     0.20206   0.41271   0.50589   0.00000  Uiso   1.00
C2395  C     0.26315   0.40546   0.66481   0.00000  Uiso   1.00
C2396  C     0.25451   0.49213   0.64700   0.00000  Uiso   1.00
C2397  C     0.20755   0.49459   0.51518   0.00000  Uiso   1.00
C2398  C     0.26795   0.46815   0.66277   0.00000  Uiso   1.00
C2399  C     0.19580   0.43042   0.54171   0.00000  Uiso   1.00
C2400  C     0.19068   0.53352   0.61657   0.00000  Uiso   1.00
C2401  C     0.26056   0.44430   0.65425   0.00000  Uiso   1.00
C2402  C     0.20242   0.41426   0.60059   0.00000  Uiso   1.00
C2403  C     0.19095   0.51013   0.60797   0.00000  Uiso   1.00
C2404  C     0.24337   0.41726   0.56329   0.00000  Uiso   1.00
C2405  C     0.22679   0.36959   0.59368   0.00000  Uiso   1.00
C2406  C     0.23521   0.43389   0.52685   0.00000  Uiso   1.00
C2407  C     0.20765   0.52814   0.63181   0.00000  Uiso   1.00
C2408  C     0.22909   0.44660   0.61558   0.00000  Uiso   1.00
C2409  C     0.19843   0.45546   0.51202   0.00000  Uiso   1.00
C2410  C     0.22973   0.47007   0.60205   0.00000  Uiso   1.00
C2411  C     0.21314   0.44878   0.53189   0.00000  Uiso   1.00
C2412  C     0.22284   0.53594   0.67452   0.00000  Uiso   1.00
C2413  C     0.24842   0.40124   0.60158   0.00000  Uiso   1.00
C2414  C     0.19964   0.48798   0.57851   0.00000  Uiso   1.00
C2415  C     0.27771   0.38371   0.59767   0.00000  Uiso   1.00
C2416  C     0.17039   0.53648   0.63482   0.00000  Uiso   1.00
C2417  C     0.23904   0.50887   0.65223   0.00000  Uiso   1.00
C2418  C     0.23436   0.38604   0.60915   0.00000  Uiso   1.00
C2419  C     0.19137   0.46625   0.61103   0.00000  Uiso   1.00
C2420  C     0.25579   0.44409   0.62911   0.00000  Uiso   1.00
C2421  C     0.26952   0.38431   0.62306   0.00000  Uiso   1.00
C2422  C     0.26160   0.40390   0.62137   0.00000  Uiso   1.00
C2423  C     0.18141   0.49524   0.65492   0.00000  Uiso   1.00
C2424  C     0.76833   0.57166   0.69284   0.00000  Uiso   1.00
C2425  C     0.73328   0.58683   0.71111   0.00000  Uiso   1.00
C2426  C     0.70642   0.54348   0.74461   0.00000  Uiso   1.00
C2427  C     0.70726   0.60171   0.71420   0.00000  Uiso   1.00
C2428  C     0.78503   0.58410   0.68314   0.00000  Uiso   1.00
C2429  C     0.70849   0.55824   0.76649   0.00000  Uiso   1.00
C2430  C     0.71337   0.64092   0.70491   0.00000  Uiso   1.00
C2431  C     0.71016   0.58897   0.69161   0.00000  Uiso   1.00
C2432  C     0.75669   0.58679   0.70744   0.00000  Uiso   1.00
C2433  C     0.68570   0.70766   0.74600   0.00000  Uiso   1.00
C2434  C     0.70253   0.68553   0.69203   0.00000  Uiso   1.00
C2435  C     0.74101   0.54178   0.71084   0.00000  Uiso   1.00
C2436  C     0.71330   0.65902   0.72349   0.00000  Uiso   1.00
C2437  C     0.75754   0.66500   0.71237   0.00000  Uiso   1.00
C2438  C     0.69858   0.62138   0.70869   0.00000  Uiso   1.00
C2439  C     0.68804   0.70462   0.70105   0.00000  Uiso   1.00
C2440  C     0.68686   0.66997   0.68693   0.00000  Uiso   1.00
C2441  C     0.72574   0.61131   0.74890   0.00000  Uiso   1.00
C2442  C     0.76250   0.54216   0.69679   0.00000  Uiso   1.00
C2443  C     0.72863   0.64916   0.74071   0.00000  Uiso   1.00
C2444  C     0.71159   0.63251   0.74559   0.00000  Uiso   1.00
C2445  C     0.73233   0.56365   0.72250   0.00000  Uiso   1.00
C2446  C     0.68111   0.66541   0.75536   0.00000  Uiso   1.00
C2447  C     0.72138   0.68038   0.70996   0.00000  Uiso   1.00
C2448  C     0.76023   0.57600   0.73140   0.00000  Uiso   1.00
C2449  C     0.70278   0.58098   0.75745   0.00000  Uiso   1.00
C2450  C     0.69332   0.61482   0.78261   0.00000  Uiso   1.00
C2451  C     0.70157   0.63573   0.76963   0.00000  Uiso   1.00
C2452  C     0.73757   0.54738   0.75848   0.00000  Uiso   1.00
C2453  C     0.74960   0.64595   0.72706   0.00000  Uiso   1.00
C2454  C     0.68932   0.65667   0.73302   0.00000  Uiso   1.00
C2455  C     0.72572   0.58813   0.75541   0.00000  Uiso   1.00
C2456  C     0.70249   0.64854   0.68723   0.00000  Uiso   1.00
C2457  C     0.78325   0.61010   0.68689   0.00000  Uiso   1.00
C2458  C     0.69284   0.62683   0.72825   0.00000  Uiso   1.00
C2459  C     0.73895   0.56942   0.74265   0.00000  Uiso   1.00
C2460  C     0.67677   0.66539   0.78616   0.00000  Uiso   1.00
C2461  C     0.68496   0.59614   0.76995   0.00000  Uiso   1.00
C2462  C     0.73351   0.59101   0.68859   0.00000  Uiso   1.00
C2463  C     0.74369   0.67123   0.69180   0.00000  Uiso   1.00
C2464  C     0.72936   0.60760   0.72304   0.00000  Uiso   1.00
C2465  C     0.68570   0.55723   0.78234   0.00000  Uiso   1.00
C2466  C     0.76847   0.61059   0.70853   0.00000  Uiso   1.00
C2467  C     0.67974   0.64834   0.77071   0.00000  Uiso   1.00
C2468  C     0.73379   0.63477   0.69294   0.00000  Uiso   1.00
C2469  C     0.74786   0.62560   0.71287   0.00000  Uiso   1.00
C2470  C     0.69415   0.57930   0.73074   0.00000  Uiso   1.00
C2471  C     0.70739   0.55740   0.72307   0.00000  Uiso   1.00
C2472  C     0.70372   0.74421   0.68378   0.00000  Uiso   1.00
C2473  C     0.69064   0.73104   0.70237   0.00000  Uiso   1.00
C2474  C     0.67210   0.57819   0.78324   0.00000  Uiso   1.00
C2475  C     0.57898   0.58573   0.83041   0.00000  Uiso   1.00
C2476  C     0.57731   0.65539   0.81671   0.00000  Uiso   1.00
C2477  C     0.55725   0.66992   0.81955   0.00000  Uiso   1.00
C2478  C     0.65670   0.55786   0.75207   0.00000  Uiso   1.00
C2479  C     0.50124   0.59240   0.81850   0.00000  Uiso   1.00
C2480  C     0.51403   0.57509   0.81819   0.00000  Uiso   1.00
C2481  C     0.56222   0.57287   0.79152   0.00000  Uiso   1.00
C2482  C     0.64200   0.60080   0.75601   0.00000  Uiso   1.00
C2483  C     0.56276   0.64565   0.76557   0.00000  Uiso   1.00
C2484  C     0.57777   0.60686   0.77356   0.00000  Uiso   1.00
C2485  C     0.63726   0.68209   0.72401   0.00000  Uiso   1.00
C2486  C     0.50668   0.70837   0.74557   0.00000  Uiso   1.00
C2487  C     0.62074   0.63577   0.77431   0.00000  Uiso   1.00
C2488  C     0.65096   0.57376   0.76713   0.00000  Uiso   1.00
C2489  C     0.66860   0.61802   0.73171   0.00000  Uiso   1.00
C2490  C     0.51184   0.55256   0.80592   0.00000  Uiso   1.00
C2491  C     0.59858   0.69324   0.72563   0.00000  Uiso   1.00
C2492  C     0.58129   0.68243   0.75758   0.00000  Uiso   1.00
C2493  C     0.60755   0.66562   0.79840   0.00000  Uiso   1.00
C2494  C     0.59876   0.58255   0.82357   0.00000  Uiso   1.00
C2495  C     0.51470   0.68613   0.75891   0.00000  Uiso   1.00
C2496  C     0.65323   0.71175   0.71962   0.00000  Uiso   1.00
C2497  C     0.57045   0.55455   0.82274   0.00000  Uiso   1.00
C2498  C     0.65815   0.68362   0.73044   0.00000  Uiso   1.00
C2499  C     0.59347   0.56188   0.81908   0.00000  Uiso   1.00
C2500  C     0.59675   0.71469   0.71223   0.00000  Uiso   1.00
C2501  C     0.60139   0.64520   0.76006   0.00000  Uiso   1.00
C2502  C     0.49924   0.58847   0.84117   0.00000  Uiso   1.00
C2503  C     0.63167   0.69691   0.78693   0.00000  Uiso   1.00
C2504  C     0.57522   0.61912   0.83514   0.00000  Uiso   1.00
C2505  C     0.64888   0.56451   0.81878   0.00000  Uiso   1.00
C2506  C     0.66071   0.62745   0.80538   0.00000  Uiso   1.00
C2507  C     0.50917   0.56968   0.83965   0.00000  Uiso   1.00
C2508  C     0.56079   0.57285   0.81747   0.00000  Uiso   1.00
C2509  C     0.62076   0.68993   0.74012   0.00000  Uiso   1.00
C2510  C     0.65788   0.63426   0.76842   0.00000  Uiso   1.00
C2511  C     0.66304   0.67684   0.75562   0.00000  Uiso   1.00
C2512  C     0.54694   0.62676   0.80603   0.00000  Uiso   1.00
C2513  C     0.54953   0.70615   0.74445   0.00000  Uiso   1.00
C2514  C     0.53756   0.66274   0.79784   0.00000  Uiso   1.00
C2515  C     0.60570   0.67138   0.75830   0.00000  Uiso   1.00
C2516  C     0.62239   0.56535   0.75962   0.00000  Uiso   1.00
C2517  C     0.57209   0.68295   0.78120   0.00000  Uiso   1.00
C2518  C     0.58094   0.70643   0.78786   0.00000  Uiso   1.00
C2519  C     0.62496   0.61243   0.77129   0.00000  Uiso   1.00
C2520  C     0.54159   0.68633   0.75980   0.00000  Uiso   1.00
C2521  C     0.62477   0.71286   0.75327   0.00000  Uiso   1.00
C2522  C     0.62071   0.64293   0.79656   0.00000  Uiso   1.00
C2523  C     0.65680   0.65718   0.78823   0.00000  Uiso   1.00
C2524  C     0.62726   0.60394   0.79407   0.00000  Uiso   1.00
C2525  C     0.60851   0.55158   0.80322   0.00000  Uiso   1.00
C2526  C     0.50356   0.54755   0.83991   0.00000  Uiso   1.00
C2527  C     0.67617   0.70073   0.72188   0.00000  Uiso   1.00
C2528  C     0.58493   0.66329   0.79364   0.00000  Uiso   1.00
C2529  C     0.57383   0.57315   0.84857   0.00000  Uiso   1.00
C2530  C     0.59865   0.59790   0.76716   0.00000  Uiso   1.00
C2531  C     0.51702   0.60990   0.78569   0.00000  Uiso   1.00
C2532  C     0.67105   0.54519   0.76578   0.00000  Uiso   1.00
C2533  C     0.49922   0.61492   0.80466   0.00000  Uiso   1.00
C2534  C     0.52076   0.63180   0.77332   0.00000  Uiso   1.00
C2535  C     0.66138   0.60953   0.75594   0.00000  Uiso   1.00
C2536  C     0.66888   0.66247   0.71871   0.00000  Uiso   1.00
C2537  C     0.53915   0.60426   0.79756   0.00000  Uiso   1.00
C2538  C     0.54238   0.54775   0.85539   0.00000  Uiso   1.00
C2539  C     0.56631   0.55152   0.84832   0.00000  Uiso   1.00
C2540  C     0.64851   0.66290   0.76852   0.00000  Uiso   1.00
C2541  C     0.57050   0.62988   0.81303   0.00000  Uiso   1.00
C2542  C     0.49941   0.68874   0.78467   0.00000  Uiso   1.00
C2543  C     0.57694   0.69572   0.73670   0.00000  Uiso   1.00
C2544  C     0.61323   0.68124   0.78215   0.00000  Uiso   1.00
C2545  C     0.64960   0.60529   0.80635   0.00000  Uiso   1.00
C2546  C     0.51768   0.60435   0.85179   0.00000  Uiso   1.00
C2547  C     0.54568   0.71103   0.79885   0.00000  Uiso   1.00
C2548  C     0.61522   0.62042   0.82833   0.00000  Uiso   1.00
C2549  C     0.55699   0.59429   0.78166   0.00000  Uiso   1.00
C2550  C     0.51050   0.69279   0.80865   0.00000  Uiso   1.00
C2551  C     0.54661   0.68454   0.78452   0.00000  Uiso   1.00
C2552  C     0.66260   0.58365   0.80635   0.00000  Uiso   1.00
C2553  C     0.64358   0.64620   0.80623   0.00000  Uiso   1.00
C2554  C     0.64086   0.69787   0.70965   0.00000  Uiso   1.00
C2555  C     0.49952   0.64820   0.76984   0.00000  Uiso   1.00
C2556  C     0.58533   0.62035   0.79487   0.00000  Uiso   1.00
C2557  C     0.60547   0.70588   0.79872   0.00000  Uiso   1.00
C2558  C     0.58466   0.64495   0.77725   0.00000  Uiso   1.00
C2559  C     0.53597   0.60970   0.83456   0.00000  Uiso   1.00
C2560  C     0.63753   0.64309   0.75693   0.00000  Uiso   1.00
C2561  C     0.66429   0.70445   0.76758   0.00000  Uiso   1.00
C2562  C     0.60230   0.57755   0.78077   0.00000  Uiso   1.00
C2563  C     0.55703   0.66486   0.75478   0.00000  Uiso   1.00
C2564  C     0.63891   0.55867   0.77753   0.00000  Uiso   1.00
C2565  C     0.51798   0.67230   0.82279   0.00000  Uiso   1.00
C2566  C     0.64173   0.71122   0.77003   0.00000  Uiso   1.00
C2567  C     0.52347   0.71271   0.81218   0.00000  Uiso   1.00
C2568  C     0.53516   0.58971   0.81709   0.00000  Uiso   1.00
C2569  C     0.59210   0.55572   0.78588   0.00000  Uiso   1.00
C2570  C     0.54259   0.64322   0.78123   0.00000  Uiso   1.00
C2571  C     0.60964   0.62135   0.80287   0.00000  Uiso   1.00
C2572  C     0.62996   0.56365   0.80272   0.00000  Uiso   1.00
C2573  C     0.53210   0.63000   0.82574   0.00000  Uiso   1.00
C2574  C     0.51314   0.66011   0.80582   0.00000  Uiso   1.00
C2575  C     0.51043   0.63568   0.81454   0.00000  Uiso   1.00
C2576  C     0.61622   0.58117   0.79891   0.00000  Uiso   1.00
C2577  C     0.59013   0.74641   0.69237   0.00000  Uiso   1.00
C2578  C     0.54759   0.73084   0.78066   0.00000  Uiso   1.00
C2579  C     0.65321   0.75944   0.70239   0.00000  Uiso   1.00
C2580  C     0.55715   0.76514   0.71048   0.00000  Uiso   1.00
C2581  C     0.52940   0.71957   0.74106   0.00000  Uiso   1.00
C2582  C     0.53172   0.78106   0.70806   0.00000  Uiso   1.00
C2583  C     0.61177   0.75696   0.68592   0.00000  Uiso   1.00
C2584  C     0.65766   0.73975   0.74959   0.00000  Uiso   1.00
C2585  C     0.52733   0.73442   0.76721   0.00000  Uiso   1.00
C2586  C     0.53798   0.81971   0.70121   0.00000  Uiso   1.00
C2587  C     0.53382   0.76717   0.69148   0.00000  Uiso   1.00
C2588  C     0.57862   0.76172   0.71105   0.00000  Uiso   1.00
C2589  C     0.51953   0.80288   0.70561   0.00000  Uiso   1.00
C2590  C     0.51017   0.73290   0.80281   0.00000  Uiso   1.00
C2591  C     0.62459   0.79600   0.69623   0.00000  Uiso   1.00
C2592  C     0.55018   0.78901   0.74690   0.00000  Uiso   1.00
C2593  C     0.61346   0.74148   0.76357   0.00000  Uiso   1.00
C2594  C     0.55634   0.74348   0.72145   0.00000  Uiso   1.00
C2595  C     0.66620   0.73929   0.70976   0.00000  Uiso   1.00
C2596  C     0.64118   0.72576   0.73660   0.00000  Uiso   1.00
C2597  C     0.60079   0.73228   0.73028   0.00000  Uiso   1.00
C2598  C     0.63045   0.74809   0.70026   0.00000  Uiso   1.00
C2599  C     0.58533   0.75329   0.73129   0.00000  Uiso   1.00
C2600  C     0.52492   0.75836   0.75663   0.00000  Uiso   1.00
C2601  C     0.62367   0.74205   0.72471   0.00000  Uiso   1.00
C2602  C     0.56034   0.72468   0.76011   0.00000  Uiso   1.00
C2603  C     0.54919   0.76497   0.75725   0.00000  Uiso   1.00
C2604  C     0.52420   0.82555   0.68615   0.00000  Uiso   1.00
C2605  C     0.60641   0.78233   0.68634   0.00000  Uiso   1.00
C2606  C     0.67025   0.75263   0.72989   0.00000  Uiso   1.00
C2607  C     0.50946   0.80467   0.68608   0.00000  Uiso   1.00
C2608  C     0.51163   0.80552   0.72925   0.00000  Uiso   1.00
C2609  C     0.56021   0.74465   0.74557   0.00000  Uiso   1.00
C2610  C     0.60271   0.72454   0.75526   0.00000  Uiso   1.00
C2611  C     0.50782   0.77198   0.76964   0.00000  Uiso   1.00
C2612  C     0.55824   0.77093   0.68997   0.00000  Uiso   1.00
C2613  C     0.55139   0.78465   0.72043   0.00000  Uiso   1.00
C2614  C     0.50463   0.72970   0.77878   0.00000  Uiso   1.00
C2615  C     0.60155   0.77238   0.74041   0.00000  Uiso   1.00
C2616  C     0.58327   0.72014   0.76842   0.00000  Uiso   1.00
C2617  C     0.59236   0.78704   0.70799   0.00000  Uiso   1.00
C2618  C     0.55720   0.81079   0.69063   0.00000  Uiso   1.00
C2619  C     0.57296   0.80377   0.71155   0.00000  Uiso   1.00
C2620  C     0.60143   0.79345   0.72728   0.00000  Uiso   1.00
C2621  C     0.62427   0.76209   0.73854   0.00000  Uiso   1.00
C2622  C     0.51821   0.75916   0.73080   0.00000  Uiso   1.00
C2623  C     0.52651   0.73721   0.72058   0.00000  Uiso   1.00
C2624  C     0.58729   0.73577   0.78204   0.00000  Uiso   1.00
C2625  C     0.74650   0.68807   0.67317   0.00000  Uiso   1.00
C2626  C     0.83183   0.57846   0.52629   0.00000  Uiso   1.00
C2627  C     0.75635   0.58793   0.65033   0.00000  Uiso   1.00
C2628  C     0.75467   0.65564   0.63950   0.00000  Uiso   1.00
C2629  C     0.73143   0.66848   0.64062   0.00000  Uiso   1.00
C2630  C     0.78806   0.58585   0.50794   0.00000  Uiso   1.00
C2631  C     0.83468   0.56213   0.57100   0.00000  Uiso   1.00
C2632  C     0.78442   0.66995   0.51123   0.00000  Uiso   1.00
C2633  C     0.81228   0.68359   0.54946   0.00000  Uiso   1.00
C2634  C     0.80249   0.63450   0.59140   0.00000  Uiso   1.00
C2635  C     0.81319   0.63951   0.50724   0.00000  Uiso   1.00
C2636  C     0.82702   0.57569   0.59026   0.00000  Uiso   1.00
C2637  C     0.75806   0.66621   0.53345   0.00000  Uiso   1.00
C2638  C     0.77488   0.62316   0.66719   0.00000  Uiso   1.00
C2639  C     0.78344   0.66044   0.66721   0.00000  Uiso   1.00
C2640  C     0.77474   0.69110   0.54481   0.00000  Uiso   1.00
C2641  C     0.81284   0.60906   0.65300   0.00000  Uiso   1.00
C2642  C     0.80014   0.62137   0.51547   0.00000  Uiso   1.00
C2643  C     0.75396   0.67679   0.57602   0.00000  Uiso   1.00
C2644  C     0.78720   0.66365   0.61880   0.00000  Uiso   1.00
C2645  C     0.78077   0.57772   0.64595   0.00000  Uiso   1.00
C2646  C     0.74686   0.55589   0.64839   0.00000  Uiso   1.00
C2647  C     0.77398   0.55398   0.64668   0.00000  Uiso   1.00
C2648  C     0.77705   0.71457   0.53518   0.00000  Uiso   1.00
C2649  C     0.78321   0.64504   0.57870   0.00000  Uiso   1.00
C2650  C     0.75266   0.61236   0.65776   0.00000  Uiso   1.00
C2651  C     0.74196   0.64894   0.67956   0.00000  Uiso   1.00
C2652  C     0.73247   0.61147   0.67361   0.00000  Uiso   1.00
C2653  C     0.80657   0.56479   0.65903   0.00000  Uiso   1.00
C2654  C     0.79315   0.68647   0.56329   0.00000  Uiso   1.00
C2655  C     0.76853   0.63409   0.56106   0.00000  Uiso   1.00
C2656  C     0.72396   0.70490   0.56820   0.00000  Uiso   1.00
C2657  C     0.78300   0.67175   0.58189   0.00000  Uiso   1.00
C2658  C     0.79678   0.56573   0.58587   0.00000  Uiso   1.00
C2659  C     0.75067   0.67875   0.60198   0.00000  Uiso   1.00
C2660  C     0.76171   0.70091   0.60951   0.00000  Uiso   1.00
C2661  C     0.84384   0.56156   0.53180   0.00000  Uiso   1.00
C2662  C     0.74024   0.69020   0.64981   0.00000  Uiso   1.00
C2663  C     0.80376   0.70686   0.57577   0.00000  Uiso   1.00
C2664  C     0.81781   0.54818   0.55678   0.00000  Uiso   1.00
C2665  C     0.79699   0.64211   0.61625   0.00000  Uiso   1.00
C2666  C     0.78037   0.55271   0.55089   0.00000  Uiso   1.00
C2667  C     0.76362   0.64387   0.66570   0.00000  Uiso   1.00
C2668  C     0.80815   0.56718   0.52108   0.00000  Uiso   1.00
C2669  C     0.79565   0.60431   0.61325   0.00000  Uiso   1.00
C2670  C     0.78586   0.54940   0.62879   0.00000  Uiso   1.00
C2671  C     0.79993   0.66383   0.53887   0.00000  Uiso   1.00
C2672  C     0.82138   0.68407   0.51301   0.00000  Uiso   1.00
C2673  C     0.76570   0.65941   0.61941   0.00000  Uiso   1.00
C2674  C     0.83652   0.64204   0.51703   0.00000  Uiso   1.00
C2675  C     0.74985   0.57485   0.67673   0.00000  Uiso   1.00
C2676  C     0.79995   0.56144   0.54399   0.00000  Uiso   1.00
C2677  C     0.71658   0.69065   0.67003   0.00000  Uiso   1.00
C2678  C     0.78165   0.60953   0.51100   0.00000  Uiso   1.00
C2679  C     0.84825   0.57586   0.55129   0.00000  Uiso   1.00
C2680  C     0.74180   0.55175   0.67102   0.00000  Uiso   1.00
C2681  C     0.78266   0.55017   0.57490   0.00000  Uiso   1.00
C2682  C     0.75184   0.63223   0.63438   0.00000  Uiso   1.00
C2683  C     0.75104   0.68690   0.55173   0.00000  Uiso   1.00
C2684  C     0.79598   0.58595   0.66241   0.00000  Uiso   1.00
C2685  C     0.78781   0.67632   0.64189   0.00000  Uiso   1.00
C2686  C     0.79931   0.67652   0.60119   0.00000  Uiso   1.00
C2687  C     0.77958   0.66992   0.53241   0.00000  Uiso   1.00
C2688  C     0.82555   0.60315   0.63090   0.00000  Uiso   1.00
C2689  C     0.72678   0.70996   0.61629   0.00000  Uiso   1.00
C2690  C     0.79078   0.61622   0.65378   0.00000  Uiso   1.00
C2691  C     0.72621   0.68665   0.60428   0.00000  Uiso   1.00
C2692  C     0.74556   0.70853   0.63418   0.00000  Uiso   1.00
C2693  C     0.83143   0.63847   0.54092   0.00000  Uiso   1.00
C2694  C     0.76270   0.62893   0.61665   0.00000  Uiso   1.00
C2695  C     0.78398   0.70425   0.62266   0.00000  Uiso   1.00
C2696  C     0.76379   0.64766   0.60163   0.00000  Uiso   1.00
C2697  C     0.81898   0.64455   0.58122   0.00000  Uiso   1.00
C2698  C     0.80421   0.66345   0.51583   0.00000  Uiso   1.00
C2699  C     0.78279   0.57436   0.59959   0.00000  Uiso   1.00
C2700  C     0.81181   0.56167   0.60168   0.00000  Uiso   1.00
C2701  C     0.70799   0.71531   0.63342   0.00000  Uiso   1.00
C2702  C     0.80899   0.64152   0.55145   0.00000  Uiso   1.00
C2703  C     0.77467   0.69858   0.64084   0.00000  Uiso   1.00
C2704  C     0.72031   0.65067   0.66676   0.00000  Uiso   1.00
C2705  C     0.71476   0.71207   0.65857   0.00000  Uiso   1.00
C2706  C     0.78341   0.61873   0.62929   0.00000  Uiso   1.00
C2707  C     0.80478   0.56357   0.62454   0.00000  Uiso   1.00
C2708  C     0.79320   0.58125   0.61766   0.00000  Uiso   1.00
C2709  C     0.71519   0.67380   0.65362   0.00000  Uiso   1.00
C2710  C     0.76649   0.74583   0.51442   0.00000  Uiso   1.00
C2711  C     0.72977   0.73144   0.60274   0.00000  Uiso   1.00
C2712  C     0.70435   0.74382   0.50927   0.00000  Uiso   1.00
C2713  C     0.73997   0.76810   0.53324   0.00000  Uiso   1.00
C2714  C     0.70783   0.77740   0.53489   0.00000  Uiso   1.00
C2715  C     0.67821   0.76903   0.64183   0.00000  Uiso   1.00
C2716  C     0.70691   0.73504   0.58878   0.00000  Uiso   1.00
C2717  C     0.69436   0.75409   0.64078   0.00000  Uiso   1.00
C2718  C     0.71078   0.81933   0.52339   0.00000  Uiso   1.00
C2719  C     0.74360   0.74565   0.61013   0.00000  Uiso   1.00
C2720  C     0.71168   0.76731   0.51055   0.00000  Uiso   1.00
C2721  C     0.75963   0.75687   0.53476   0.00000  Uiso   1.00
C2722  C     0.73636   0.71941   0.52596   0.00000  Uiso   1.00
C2723  C     0.69507   0.80018   0.53050   0.00000  Uiso   1.00
C2724  C     0.68857   0.73180   0.62932   0.00000  Uiso   1.00
C2725  C     0.74912   0.73151   0.64734   0.00000  Uiso   1.00
C2726  C     0.67765   0.76655   0.66345   0.00000  Uiso   1.00
C2727  C     0.72352   0.78591   0.56712   0.00000  Uiso   1.00
C2728  C     0.68870   0.74864   0.66236   0.00000  Uiso   1.00
C2729  C     0.73811   0.74987   0.63470   0.00000  Uiso   1.00
C2730  C     0.76043   0.72114   0.51802   0.00000  Uiso   1.00
C2731  C     0.71246   0.80776   0.57056   0.00000  Uiso   1.00
C2732  C     0.72797   0.74013   0.53710   0.00000  Uiso   1.00
C2733  C     0.78122   0.73184   0.55444   0.00000  Uiso   1.00
C2734  C     0.67664   0.72610   0.66088   0.00000  Uiso   1.00
C2735  C     0.76760   0.75371   0.55400   0.00000  Uiso   1.00
C2736  C     0.70531   0.75854   0.58016   0.00000  Uiso   1.00
C2737  C     0.69765   0.79094   0.60819   0.00000  Uiso   1.00
C2738  C     0.68245   0.79128   0.62983   0.00000  Uiso   1.00
C2739  C     0.70171   0.81214   0.59421   0.00000  Uiso   1.00
C2740  C     0.73881   0.72530   0.57470   0.00000  Uiso   1.00
C2741  C     0.68866   0.83415   0.55296   0.00000  Uiso   1.00
C2742  C     0.72555   0.76644   0.58004   0.00000  Uiso   1.00
C2743  C     0.70301   0.82660   0.50521   0.00000  Uiso   1.00
C2744  C     0.72008   0.78011   0.61542   0.00000  Uiso   1.00
C2745  C     0.71983   0.72698   0.67546   0.00000  Uiso   1.00
C2746  C     0.68609   0.79909   0.50701   0.00000  Uiso   1.00
C2747  C     0.68540   0.81003   0.54705   0.00000  Uiso   1.00
C2748  C     0.74339   0.74413   0.55775   0.00000  Uiso   1.00
C2749  C     0.74264   0.73300   0.67278   0.00000  Uiso   1.00
C2750  C     0.78301   0.72281   0.57760   0.00000  Uiso   1.00
C2751  C     0.68408   0.77604   0.59240   0.00000  Uiso   1.00
C2752  C     0.73566   0.76986   0.50802   0.00000  Uiso   1.00
C2753  C     0.72869   0.78483   0.54431   0.00000  Uiso   1.00
C2754  C     0.69587   0.78161   0.67402   0.00000  Uiso   1.00
C2755  C     0.68364   0.73466   0.60267   0.00000  Uiso   1.00
C2756  C     0.73815   0.76956   0.60087   0.00000  Uiso   1.00
C2757  C     0.75679   0.72125   0.59288   0.00000  Uiso   1.00
C2758  C     0.68082   0.82601   0.59165   0.00000  Uiso   1.00
C2759  C     0.69439   0.75952   0.55540   0.00000  Uiso   1.00
C2760  C     0.71728   0.76600   0.63676   0.00000  Uiso   1.00
C2761  C     0.70378   0.73780   0.54555   0.00000  Uiso   1.00
C2762  C     0.76471   0.73777   0.60468   0.00000  Uiso   1.00
C2763  C     0.66425   0.71540   0.68025   0.00000  Uiso   1.00
C2764  C     0.67180   0.75633   0.60148   0.00000  Uiso   1.00
C2765  C     0.57645   0.83618   0.63956   0.00000  Uiso   1.00
C2766  C     0.55562   0.84700   0.64461   0.00000  Uiso   1.00
C2767  C     0.60720   0.85232   0.51301   0.00000  Uiso   1.00
C2768  C     0.64219   0.77738   0.57988   0.00000  Uiso   1.00
C2769  C     0.56253   0.82584   0.59147   0.00000  Uiso   1.00
C2770  C     0.63429   0.86174   0.55207   0.00000  Uiso   1.00
C2771  C     0.64663   0.78927   0.67662   0.00000  Uiso   1.00
C2772  C     0.50543   0.88459   0.57045   0.00000  Uiso   1.00
C2773  C     0.52264   0.86614   0.51328   0.00000  Uiso   1.00
C2774  C     0.62083   0.81305   0.59133   0.00000  Uiso   1.00
C2775  C     0.53474   0.83904   0.54285   0.00000  Uiso   1.00
C2776  C     0.63406   0.82136   0.50644   0.00000  Uiso   1.00
C2777  C     0.66874   0.79364   0.55278   0.00000  Uiso   1.00
C2778  C     0.57900   0.84590   0.53537   0.00000  Uiso   1.00
C2779  C     0.59468   0.80267   0.66729   0.00000  Uiso   1.00
C2780  C     0.60262   0.83862   0.66509   0.00000  Uiso   1.00
C2781  C     0.59631   0.87118   0.54520   0.00000  Uiso   1.00
C2782  C     0.55564   0.88051   0.54406   0.00000  Uiso   1.00
C2783  C     0.62880   0.78207   0.66355   0.00000  Uiso   1.00
C2784  C     0.62241   0.79885   0.51531   0.00000  Uiso   1.00
C2785  C     0.57605   0.85316   0.57598   0.00000  Uiso   1.00
C2786  C     0.60689   0.84114   0.62080   0.00000  Uiso   1.00
C2787  C     0.51569   0.86572   0.58459   0.00000  Uiso   1.00
C2788  C     0.50537   0.88455   0.52111   0.00000  Uiso   1.00
C2789  C     0.59776   0.82211   0.58453   0.00000  Uiso   1.00
C2790  C     0.57796   0.79066   0.65312   0.00000  Uiso   1.00
C2791  C     0.56168   0.82968   0.67830   0.00000  Uiso   1.00
C2792  C     0.50763   0.84492   0.50612   0.00000  Uiso   1.00
C2793  C     0.65811   0.80440   0.61781   0.00000  Uiso   1.00
C2794  C     0.55623   0.78975   0.67459   0.00000  Uiso   1.00
C2795  C     0.63774   0.74779   0.66742   0.00000  Uiso   1.00
C2796  C     0.61293   0.86852   0.56519   0.00000  Uiso   1.00
C2797  C     0.66017   0.81082   0.59204   0.00000  Uiso   1.00
C2798  C     0.54785   0.82992   0.56000   0.00000  Uiso   1.00
C2799  C     0.58989   0.81403   0.56112   0.00000  Uiso   1.00
C2800  C     0.54709   0.80397   0.62788   0.00000  Uiso   1.00
C2801  C     0.54957   0.88403   0.56846   0.00000  Uiso   1.00
C2802  C     0.53995   0.84516   0.62338   0.00000  Uiso   1.00
C2803  C     0.60020   0.84768   0.58300   0.00000  Uiso   1.00
C2804  C     0.57116   0.86107   0.59983   0.00000  Uiso   1.00
C2805  C     0.62156   0.78706   0.59428   0.00000  Uiso   1.00
C2806  C     0.54164   0.86505   0.58338   0.00000  Uiso   1.00
C2807  C     0.61993   0.81995   0.61576   0.00000  Uiso   1.00
C2808  C     0.65207   0.84426   0.60977   0.00000  Uiso   1.00
C2809  C     0.58211   0.82532   0.66099   0.00000  Uiso   1.00
C2810  C     0.62799   0.78389   0.61816   0.00000  Uiso   1.00
C2811  C     0.50632   0.84763   0.57721   0.00000  Uiso   1.00
C2812  C     0.54246   0.85823   0.52769   0.00000  Uiso   1.00
C2813  C     0.62137   0.84164   0.53908   0.00000  Uiso   1.00
C2814  C     0.63920   0.72696   0.68052   0.00000  Uiso   1.00
C2815  C     0.64032   0.86618   0.51243   0.00000  Uiso   1.00
C2816  C     0.58423   0.84385   0.61700   0.00000  Uiso   1.00
C2817  C     0.65530   0.82438   0.51714   0.00000  Uiso   1.00
C2818  C     0.52343   0.81310   0.59510   0.00000  Uiso   1.00
C2819  C     0.66532   0.78955   0.57926   0.00000  Uiso   1.00
C2820  C     0.57039   0.82404   0.54783   0.00000  Uiso   1.00
C2821  C     0.51312   0.83871   0.55350   0.00000  Uiso   1.00
C2822  C     0.66815   0.83814   0.54144   0.00000  Uiso   1.00
C2823  C     0.62370   0.80019   0.54006   0.00000  Uiso   1.00
C2824  C     0.66583   0.84271   0.52079   0.00000  Uiso   1.00
C2825  C     0.65470   0.76568   0.67712   0.00000  Uiso   1.00
C2826  C     0.50144   0.84314   0.60782   0.00000  Uiso   1.00
C2827  C     0.64611   0.83942   0.58711   0.00000  Uiso   1.00
C2828  C     0.57210   0.80482   0.63444   0.00000  Uiso   1.00
C2829  C     0.50411   0.86461   0.60596   0.00000  Uiso   1.00
C2830  C     0.57358   0.86585   0.54867   0.00000  Uiso   1.00
C2831  C     0.61922   0.76153   0.66481   0.00000  Uiso   1.00
C2832  C     0.61036   0.85941   0.60246   0.00000  Uiso   1.00
C2833  C     0.56361   0.85065   0.51518   0.00000  Uiso   1.00
C2834  C     0.62402   0.82421   0.66277   0.00000  Uiso   1.00
C2835  C     0.60184   0.85019   0.53398   0.00000  Uiso   1.00
C2836  C     0.65009   0.78277   0.62889   0.00000  Uiso   1.00
C2837  C     0.51775   0.78243   0.67764   0.00000  Uiso   1.00
C2838  C     0.61663   0.80037   0.65425   0.00000  Uiso   1.00
C2839  C     0.51149   0.87057   0.62909   0.00000  Uiso   1.00
C2840  C     0.54702   0.86619   0.60797   0.00000  Uiso   1.00
C2841  C     0.66115   0.76148   0.63044   0.00000  Uiso   1.00
C2842  C     0.64449   0.82510   0.62400   0.00000  Uiso   1.00
C2843  C     0.50308   0.82745   0.59311   0.00000  Uiso   1.00
C2844  C     0.65739   0.81872   0.54048   0.00000  Uiso   1.00
C2845  C     0.58516   0.80267   0.61558   0.00000  Uiso   1.00
C2846  C     0.58580   0.82614   0.60205   0.00000  Uiso   1.00
C2847  C     0.53686   0.78752   0.65873   0.00000  Uiso   1.00
C2848  C     0.64035   0.81973   0.57976   0.00000  Uiso   1.00
C2849  C     0.62686   0.84341   0.51665   0.00000  Uiso   1.00
C2850  C     0.55571   0.84405   0.57851   0.00000  Uiso   1.00
C2851  C     0.51481   0.85276   0.64468   0.00000  Uiso   1.00
C2852  C     0.63320   0.82144   0.55047   0.00000  Uiso   1.00
C2853  C     0.53580   0.82757   0.66311   0.00000  Uiso   1.00
C2854  C     0.54743   0.82231   0.61103   0.00000  Uiso   1.00
C2855  C     0.61186   0.80016   0.62911   0.00000  Uiso   1.00
C2856  C     0.53091   0.80812   0.64730   0.00000  Uiso   1.00
C2857  C     0.51476   0.84049   0.62727   0.00000  Uiso   1.00
C2858  C     0.50846   0.81837   0.64034   0.00000  Uiso   1.00
C2859  C     0.53748   0.85131   0.65492   0.00000  Uiso   1.00
C2860  C     0.70253   0.32947   0.69203   0.00000  Uiso   1.00
C2861  C     0.68804   0.34855   0.70105   0.00000  Uiso   1.00
C2862  C     0.68686   0.31391   0.68693   0.00000  Uiso   1.00
C2863  C     0.73725   0.40828   0.70879   0.00000  Uiso   1.00
C2864  C     0.71296   0.42582   0.70704   0.00000  Uiso   1.00
C2865  C     0.70820   0.46727   0.70500   0.00000  Uiso   1.00
C2866  C     0.78497   0.49140   0.69054   0.00000  Uiso   1.00
C2867  C     0.71355   0.41157   0.68930   0.00000  Uiso   1.00
C2868  C     0.68633   0.52818   0.74566   0.00000  Uiso   1.00
C2869  C     0.71112   0.48346   0.72250   0.00000  Uiso   1.00
C2870  C     0.75696   0.48839   0.71246   0.00000  Uiso   1.00
C2871  C     0.69628   0.44639   0.70793   0.00000  Uiso   1.00
C2872  C     0.73537   0.52079   0.72414   0.00000  Uiso   1.00
C2873  C     0.69484   0.50753   0.75847   0.00000  Uiso   1.00
C2874  C     0.77289   0.53664   0.71611   0.00000  Uiso   1.00
C2875  C     0.72443   0.42985   0.74419   0.00000  Uiso   1.00
C2876  C     0.72790   0.46996   0.73878   0.00000  Uiso   1.00
C2877  C     0.72505   0.52686   0.74615   0.00000  Uiso   1.00
C2878  C     0.71100   0.45170   0.74419   0.00000  Uiso   1.00
C2879  C     0.72058   0.50748   0.76006   0.00000  Uiso   1.00
C2880  C     0.68317   0.49015   0.75494   0.00000  Uiso   1.00
C2881  C     0.71649   0.50778   0.71310   0.00000  Uiso   1.00
C2882  C     0.70052   0.40840   0.75435   0.00000  Uiso   1.00
C2883  C     0.70081   0.45496   0.77244   0.00000  Uiso   1.00
C2884  C     0.74969   0.46738   0.72441   0.00000  Uiso   1.00
C2885  C     0.68807   0.47785   0.73324   0.00000  Uiso   1.00
C2886  C     0.78003   0.43459   0.68757   0.00000  Uiso   1.00
C2887  C     0.69040   0.44806   0.72829   0.00000  Uiso   1.00
C2888  C     0.49924   0.49524   0.84150   0.00000  Uiso   1.00
C2889  C     0.67826   0.48928   0.79175   0.00000  Uiso   1.00
C2890  C     0.68544   0.42143   0.77064   0.00000  Uiso   1.00
C2891  C     0.68204   0.50788   0.78061   0.00000  Uiso   1.00
C2892  C     0.75574   0.50468   0.72988   0.00000  Uiso   1.00
C2893  C     0.73472   0.41354   0.68693   0.00000  Uiso   1.00
C2894  C     0.75012   0.49275   0.68930   0.00000  Uiso   1.00
C2895  C     0.77931   0.49348   0.71185   0.00000  Uiso   1.00
C2896  C     0.73073   0.42629   0.71889   0.00000  Uiso   1.00
C2897  C     0.68749   0.51579   0.80365   0.00000  Uiso   1.00
C2898  C     0.76745   0.44144   0.70739   0.00000  Uiso   1.00
C2899  C     0.68061   0.47235   0.77539   0.00000  Uiso   1.00
C2900  C     0.73219   0.45351   0.69063   0.00000  Uiso   1.00
C2901  C     0.74675   0.44705   0.71148   0.00000  Uiso   1.00
C2902  C     0.73657   0.48725   0.75408   0.00000  Uiso   1.00
C2903  C     0.69391   0.40158   0.73014   0.00000  Uiso   1.00
C2904  C     0.53244   0.28554   0.70352   0.00000  Uiso   1.00
C2905  C     0.61099   0.31341   0.69024   0.00000  Uiso   1.00
C2906  C     0.63726   0.32603   0.72401   0.00000  Uiso   1.00
C2907  C     0.50668   0.35230   0.74557   0.00000  Uiso   1.00
C2908  C     0.53489   0.30466   0.72074   0.00000  Uiso   1.00
C2909  C     0.63399   0.28442   0.68778   0.00000  Uiso   1.00
C2910  C     0.57870   0.30414   0.70575   0.00000  Uiso   1.00
C2911  C     0.51659   0.26706   0.70899   0.00000  Uiso   1.00
C2912  C     0.59858   0.33717   0.72563   0.00000  Uiso   1.00
C2913  C     0.55797   0.34495   0.72209   0.00000  Uiso   1.00
C2914  C     0.58129   0.32636   0.75758   0.00000  Uiso   1.00
C2915  C     0.51470   0.33006   0.75891   0.00000  Uiso   1.00
C2916  C     0.65323   0.35569   0.71962   0.00000  Uiso   1.00
C2917  C     0.65815   0.32756   0.73044   0.00000  Uiso   1.00
C2918  C     0.59675   0.35863   0.71223   0.00000  Uiso   1.00
C2919  C     0.50778   0.31114   0.68404   0.00000  Uiso   1.00
C2920  C     0.62076   0.33386   0.74012   0.00000  Uiso   1.00
C2921  C     0.54912   0.29243   0.73760   0.00000  Uiso   1.00
C2922  C     0.54953   0.35008   0.74445   0.00000  Uiso   1.00
C2923  C     0.58094   0.35037   0.78786   0.00000  Uiso   1.00
C2924  C     0.54159   0.33026   0.75980   0.00000  Uiso   1.00
C2925  C     0.50433   0.31015   0.75083   0.00000  Uiso   1.00
C2926  C     0.54257   0.32403   0.70685   0.00000  Uiso   1.00
C2927  C     0.61893   0.30210   0.71866   0.00000  Uiso   1.00
C2928  C     0.67617   0.34466   0.72188   0.00000  Uiso   1.00
C2929  C     0.64593   0.32855   0.68944   0.00000  Uiso   1.00
C2930  C     0.65412   0.29017   0.69725   0.00000  Uiso   1.00
C2931  C     0.57091   0.28714   0.72357   0.00000  Uiso   1.00
C2932  C     0.51366   0.29975   0.73002   0.00000  Uiso   1.00
C2933  C     0.52370   0.29036   0.68227   0.00000  Uiso   1.00
C2934  C     0.60392   0.25429   0.68446   0.00000  Uiso   1.00
C2935  C     0.66553   0.31242   0.69613   0.00000  Uiso   1.00
C2936  C     0.51036   0.26948   0.68684   0.00000  Uiso   1.00
C2937  C     0.51317   0.27361   0.72874   0.00000  Uiso   1.00
C2938  C     0.49941   0.33267   0.78467   0.00000  Uiso   1.00
C2939  C     0.57694   0.33965   0.73670   0.00000  Uiso   1.00
C2940  C     0.56381   0.32007   0.69353   0.00000  Uiso   1.00
C2941  C     0.60134   0.31490   0.71091   0.00000  Uiso   1.00
C2942  C     0.54568   0.35496   0.79885   0.00000  Uiso   1.00
C2943  C     0.54661   0.32847   0.78452   0.00000  Uiso   1.00
C2944  C     0.64086   0.34180   0.70965   0.00000  Uiso   1.00
C2945  C     0.55463   0.27910   0.69275   0.00000  Uiso   1.00
C2946  C     0.57058   0.27156   0.70918   0.00000  Uiso   1.00
C2947  C     0.62781   0.30488   0.69948   0.00000  Uiso   1.00
C2948  C     0.55703   0.30879   0.75478   0.00000  Uiso   1.00
C2949  C     0.54759   0.37477   0.78066   0.00000  Uiso   1.00
C2950  C     0.56644   0.51085   0.85124   0.00000  Uiso   1.00
C2951  C     0.57501   0.47331   0.81545   0.00000  Uiso   1.00
C2952  C     0.55891   0.49179   0.81773   0.00000  Uiso   1.00
C2953  C     0.52940   0.36351   0.74106   0.00000  Uiso   1.00
C2954  C     0.50216   0.41629   0.82117   0.00000  Uiso   1.00
C2955  C     0.52733   0.37835   0.76721   0.00000  Uiso   1.00
C2956  C     0.51863   0.39825   0.81517   0.00000  Uiso   1.00
C2957  C     0.56733   0.39471   0.79209   0.00000  Uiso   1.00
C2958  C     0.64360   0.42193   0.75877   0.00000  Uiso   1.00
C2959  C     0.57878   0.42973   0.77377   0.00000  Uiso   1.00
C2960  C     0.62224   0.45818   0.76943   0.00000  Uiso   1.00
C2961  C     0.66711   0.44072   0.72663   0.00000  Uiso   1.00
C2962  C     0.51017   0.37684   0.80281   0.00000  Uiso   1.00
C2963  C     0.64020   0.51636   0.80936   0.00000  Uiso   1.00
C2964  C     0.60639   0.48467   0.79683   0.00000  Uiso   1.00
C2965  C     0.59847   0.46862   0.76167   0.00000  Uiso   1.00
C2966  C     0.62810   0.51800   0.79035   0.00000  Uiso   1.00
C2967  C     0.57264   0.43530   0.83249   0.00000  Uiso   1.00
C2968  C     0.66043   0.44646   0.79888   0.00000  Uiso   1.00
C2969  C     0.56863   0.39525   0.81807   0.00000  Uiso   1.00
C2970  C     0.66114   0.45654   0.77045   0.00000  Uiso   1.00
C2971  C     0.66551   0.50575   0.75229   0.00000  Uiso   1.00
C2972  C     0.54743   0.44304   0.80415   0.00000  Uiso   1.00
C2973  C     0.54193   0.48880   0.79934   0.00000  Uiso   1.00
C2974  C     0.58238   0.52576   0.78900   0.00000  Uiso   1.00
C2975  C     0.62464   0.43421   0.77231   0.00000  Uiso   1.00
C2976  C     0.66620   0.38322   0.70976   0.00000  Uiso   1.00
C2977  C     0.57195   0.51415   0.82111   0.00000  Uiso   1.00
C2978  C     0.62189   0.46181   0.79442   0.00000  Uiso   1.00
C2979  C     0.60079   0.37621   0.73028   0.00000  Uiso   1.00
C2980  C     0.65592   0.48570   0.78648   0.00000  Uiso   1.00
C2981  C     0.62284   0.42844   0.79829   0.00000  Uiso   1.00
C2982  C     0.52492   0.40230   0.75663   0.00000  Uiso   1.00
C2983  C     0.58354   0.47972   0.79560   0.00000  Uiso   1.00
C2984  C     0.60081   0.41660   0.76692   0.00000  Uiso   1.00
C2985  C     0.51685   0.43439   0.78597   0.00000  Uiso   1.00
C2986  C     0.49966   0.44189   0.80559   0.00000  Uiso   1.00
C2987  C     0.66449   0.43329   0.75948   0.00000  Uiso   1.00
C2988  C     0.56034   0.36861   0.76011   0.00000  Uiso   1.00
C2989  C     0.54221   0.51538   0.84714   0.00000  Uiso   1.00
C2990  C     0.54919   0.40890   0.75725   0.00000  Uiso   1.00
C2991  C     0.53648   0.42335   0.79329   0.00000  Uiso   1.00
C2992  C     0.67025   0.39656   0.72989   0.00000  Uiso   1.00
C2993  C     0.56021   0.38859   0.74557   0.00000  Uiso   1.00
C2994  C     0.50117   0.48569   0.78761   0.00000  Uiso   1.00
C2995  C     0.60271   0.36847   0.75526   0.00000  Uiso   1.00
C2996  C     0.64017   0.49088   0.76847   0.00000  Uiso   1.00
C2997  C     0.56861   0.44744   0.80958   0.00000  Uiso   1.00
C2998  C     0.50782   0.41591   0.76964   0.00000  Uiso   1.00
C2999  C     0.61088   0.49225   0.82242   0.00000  Uiso   1.00
C3000  C     0.61804   0.49967   0.77883   0.00000  Uiso   1.00
C3001  C     0.64611   0.42891   0.80776   0.00000  Uiso   1.00
C3002  C     0.54456   0.53416   0.79395   0.00000  Uiso   1.00
C3003  C     0.50463   0.37363   0.77878   0.00000  Uiso   1.00
C3004  C     0.56149   0.41319   0.77967   0.00000  Uiso   1.00
C3005  C     0.51356   0.51834   0.80742   0.00000  Uiso   1.00
C3006  C     0.54829   0.51077   0.78501   0.00000  Uiso   1.00
C3007  C     0.60155   0.41632   0.74041   0.00000  Uiso   1.00
C3008  C     0.58327   0.36408   0.76842   0.00000  Uiso   1.00
C3009  C     0.64673   0.46768   0.80133   0.00000  Uiso   1.00
C3010  C     0.56465   0.53379   0.80719   0.00000  Uiso   1.00
C3011  C     0.58592   0.44753   0.79690   0.00000  Uiso   1.00
C3012  C     0.63552   0.49941   0.82587   0.00000  Uiso   1.00
C3013  C     0.60839   0.52727   0.80465   0.00000  Uiso   1.00
C3014  C     0.58140   0.46384   0.78022   0.00000  Uiso   1.00
C3015  C     0.53563   0.43192   0.83310   0.00000  Uiso   1.00
C3016  C     0.64163   0.46779   0.75837   0.00000  Uiso   1.00
C3017  C     0.66340   0.52220   0.77068   0.00000  Uiso   1.00
C3018  C     0.60602   0.39466   0.78131   0.00000  Uiso   1.00
C3019  C     0.51745   0.49827   0.82355   0.00000  Uiso   1.00
C3020  C     0.64050   0.53321   0.77272   0.00000  Uiso   1.00
C3021  C     0.52605   0.53493   0.81301   0.00000  Uiso   1.00
C3022  C     0.53584   0.41385   0.81543   0.00000  Uiso   1.00
C3023  C     0.66423   0.52262   0.81588   0.00000  Uiso   1.00
C3024  C     0.59824   0.51486   0.82382   0.00000  Uiso   1.00
C3025  C     0.58729   0.37971   0.78204   0.00000  Uiso   1.00
C3026  C     0.53922   0.46866   0.84464   0.00000  Uiso   1.00
C3027  C     0.54218   0.46428   0.78655   0.00000  Uiso   1.00
C3028  C     0.53177   0.53687   0.83760   0.00000  Uiso   1.00
C3029  C     0.61003   0.44239   0.80783   0.00000  Uiso   1.00
C3030  C     0.53081   0.45625   0.82549   0.00000  Uiso   1.00
C3031  C     0.52003   0.48371   0.80762   0.00000  Uiso   1.00
C3032  C     0.50753   0.45878   0.82049   0.00000  Uiso   1.00
C3033  C     0.61806   0.40297   0.80157   0.00000  Uiso   1.00
C3034  C     0.53969   0.49364   0.83363   0.00000  Uiso   1.00
C3035  C     0.73143   0.31241   0.64062   0.00000  Uiso   1.00
C3036  C     0.71036   0.28321   0.52277   0.00000  Uiso   1.00
C3037  C     0.70109   0.33204   0.51132   0.00000  Uiso   1.00
C3038  C     0.71079   0.30290   0.53837   0.00000  Uiso   1.00
C3039  C     0.75806   0.31015   0.53345   0.00000  Uiso   1.00
C3040  C     0.69376   0.26553   0.53192   0.00000  Uiso   1.00
C3041  C     0.77474   0.33503   0.54481   0.00000  Uiso   1.00
C3042  C     0.73169   0.34198   0.53998   0.00000  Uiso   1.00
C3043  C     0.75396   0.32072   0.57602   0.00000  Uiso   1.00
C3044  C     0.69254   0.33407   0.58259   0.00000  Uiso   1.00
C3045  C     0.77705   0.35850   0.53518   0.00000  Uiso   1.00
C3046  C     0.68616   0.31493   0.50723   0.00000  Uiso   1.00
C3047  C     0.72254   0.29583   0.55930   0.00000  Uiso   1.00
C3048  C     0.72396   0.34884   0.56820   0.00000  Uiso   1.00
C3049  C     0.71587   0.31153   0.62137   0.00000  Uiso   1.00
C3050  C     0.75067   0.32268   0.60198   0.00000  Uiso   1.00
C3051  C     0.76171   0.34484   0.60951   0.00000  Uiso   1.00
C3052  C     0.70897   0.27626   0.57034   0.00000  Uiso   1.00
C3053  C     0.71958   0.33085   0.58090   0.00000  Uiso   1.00
C3054  C     0.74024   0.33413   0.64981   0.00000  Uiso   1.00
C3055  C     0.67841   0.31419   0.57737   0.00000  Uiso   1.00
C3056  C     0.71524   0.32562   0.52783   0.00000  Uiso   1.00
C3057  C     0.69954   0.27783   0.59562   0.00000  Uiso   1.00
C3058  C     0.69066   0.29932   0.55348   0.00000  Uiso   1.00
C3059  C     0.71658   0.33459   0.67003   0.00000  Uiso   1.00
C3060  C     0.70125   0.28714   0.50413   0.00000  Uiso   1.00
C3061  C     0.68789   0.26614   0.50945   0.00000  Uiso   1.00
C3062  C     0.68857   0.27352   0.55339   0.00000  Uiso   1.00
C3063  C     0.67647   0.31007   0.60969   0.00000  Uiso   1.00
C3064  C     0.67988   0.33341   0.60488   0.00000  Uiso   1.00
C3065  C     0.75104   0.33083   0.55173   0.00000  Uiso   1.00
C3066  C     0.74819   0.31532   0.51002   0.00000  Uiso   1.00
C3067  C     0.72678   0.35389   0.61629   0.00000  Uiso   1.00
C3068  C     0.68633   0.33884   0.62918   0.00000  Uiso   1.00
C3069  C     0.72621   0.33058   0.60428   0.00000  Uiso   1.00
C3070  C     0.74556   0.35246   0.63418   0.00000  Uiso   1.00
C3071  C     0.67869   0.29439   0.59457   0.00000  Uiso   1.00
C3072  C     0.73269   0.27682   0.51251   0.00000  Uiso   1.00
C3073  C     0.73418   0.30477   0.57670   0.00000  Uiso   1.00
C3074  C     0.69213   0.31698   0.64512   0.00000  Uiso   1.00
C3075  C     0.70799   0.35925   0.63342   0.00000  Uiso   1.00
C3076  C     0.71976   0.28723   0.61061   0.00000  Uiso   1.00
C3077  C     0.71476   0.35601   0.65857   0.00000  Uiso   1.00
C3078  C     0.69428   0.30306   0.62740   0.00000  Uiso   1.00
C3079  C     0.68820   0.28241   0.64141   0.00000  Uiso   1.00
C3080  C     0.71519   0.31773   0.65362   0.00000  Uiso   1.00
C3081  C     0.76649   0.38976   0.51442   0.00000  Uiso   1.00
C3082  C     0.72977   0.37538   0.60274   0.00000  Uiso   1.00
C3083  C     0.74091   0.51588   0.68264   0.00000  Uiso   1.00
C3084  C     0.75809   0.40974   0.65049   0.00000  Uiso   1.00
C3085  C     0.75553   0.47527   0.63795   0.00000  Uiso   1.00
C3086  C     0.81138   0.51052   0.66975   0.00000  Uiso   1.00
C3087  C     0.79035   0.39922   0.50899   0.00000  Uiso   1.00
C3088  C     0.79792   0.52875   0.67616   0.00000  Uiso   1.00
C3089  C     0.78731   0.49077   0.51512   0.00000  Uiso   1.00
C3090  C     0.74360   0.38958   0.61013   0.00000  Uiso   1.00
C3091  C     0.82220   0.42075   0.58115   0.00000  Uiso   1.00
C3092  C     0.75685   0.43065   0.59448   0.00000  Uiso   1.00
C3093  C     0.75963   0.40080   0.53476   0.00000  Uiso   1.00
C3094  C     0.81574   0.50268   0.54673   0.00000  Uiso   1.00
C3095  C     0.73636   0.36334   0.52596   0.00000  Uiso   1.00
C3096  C     0.79892   0.45744   0.59742   0.00000  Uiso   1.00
C3097  C     0.77291   0.44895   0.66619   0.00000  Uiso   1.00
C3098  C     0.78588   0.48299   0.66776   0.00000  Uiso   1.00
C3099  C     0.82493   0.50949   0.62703   0.00000  Uiso   1.00
C3100  C     0.79043   0.49026   0.61826   0.00000  Uiso   1.00
C3101  C     0.77881   0.40487   0.64534   0.00000  Uiso   1.00
C3102  C     0.83199   0.53535   0.54127   0.00000  Uiso   1.00
C3103  C     0.74912   0.37545   0.64734   0.00000  Uiso   1.00
C3104  C     0.83664   0.50329   0.55462   0.00000  Uiso   1.00
C3105  C     0.77438   0.37825   0.64614   0.00000  Uiso   1.00
C3106  C     0.77779   0.47083   0.58765   0.00000  Uiso   1.00
C3107  C     0.80659   0.52081   0.61249   0.00000  Uiso   1.00
C3108  C     0.75281   0.43530   0.65565   0.00000  Uiso   1.00
C3109  C     0.74388   0.47148   0.67825   0.00000  Uiso   1.00
C3110  C     0.73479   0.43409   0.67283   0.00000  Uiso   1.00
C3111  C     0.68870   0.39257   0.66236   0.00000  Uiso   1.00
C3112  C     0.73811   0.39380   0.63470   0.00000  Uiso   1.00
C3113  C     0.79256   0.51206   0.56553   0.00000  Uiso   1.00
C3114  C     0.76043   0.36507   0.51802   0.00000  Uiso   1.00
C3115  C     0.84200   0.50308   0.57699   0.00000  Uiso   1.00
C3116  C     0.76505   0.45896   0.56726   0.00000  Uiso   1.00
C3117  C     0.77903   0.53319   0.66026   0.00000  Uiso   1.00
C3118  C     0.78150   0.49737   0.58553   0.00000  Uiso   1.00
C3119  C     0.79290   0.38850   0.58307   0.00000  Uiso   1.00
C3120  C     0.79949   0.43169   0.59763   0.00000  Uiso   1.00
C3121  C     0.75177   0.50977   0.63678   0.00000  Uiso   1.00
C3122  C     0.80127   0.53692   0.57319   0.00000  Uiso   1.00
C3123  C     0.80082   0.46622   0.62216   0.00000  Uiso   1.00
C3124  C     0.78122   0.37577   0.55444   0.00000  Uiso   1.00
C3125  C     0.76453   0.47117   0.66269   0.00000  Uiso   1.00
C3126  C     0.80878   0.38802   0.52280   0.00000  Uiso   1.00
C3127  C     0.80253   0.42901   0.62085   0.00000  Uiso   1.00
C3128  C     0.78583   0.37265   0.62489   0.00000  Uiso   1.00
C3129  C     0.79875   0.49033   0.54426   0.00000  Uiso   1.00
C3130  C     0.67664   0.37004   0.66088   0.00000  Uiso   1.00
C3131  C     0.84822   0.52262   0.54929   0.00000  Uiso   1.00
C3132  C     0.76760   0.39765   0.55400   0.00000  Uiso   1.00
C3133  C     0.82173   0.50261   0.51720   0.00000  Uiso   1.00
C3134  C     0.76427   0.48964   0.61816   0.00000  Uiso   1.00
C3135  C     0.83189   0.46847   0.51709   0.00000  Uiso   1.00
C3136  C     0.75359   0.39922   0.67365   0.00000  Uiso   1.00
C3137  C     0.77898   0.41787   0.58961   0.00000  Uiso   1.00
C3138  C     0.80149   0.38348   0.54508   0.00000  Uiso   1.00
C3139  C     0.73881   0.36923   0.57470   0.00000  Uiso   1.00
C3140  C     0.84481   0.48641   0.54435   0.00000  Uiso   1.00
C3141  C     0.80497   0.44057   0.54264   0.00000  Uiso   1.00
C3142  C     0.84072   0.48725   0.52141   0.00000  Uiso   1.00
C3143  C     0.71983   0.37091   0.67546   0.00000  Uiso   1.00
C3144  C     0.74339   0.38807   0.55775   0.00000  Uiso   1.00
C3145  C     0.74264   0.37693   0.67278   0.00000  Uiso   1.00
C3146  C     0.78301   0.36675   0.57760   0.00000  Uiso   1.00
C3147  C     0.82073   0.48794   0.59192   0.00000  Uiso   1.00
C3148  C     0.74932   0.44974   0.63370   0.00000  Uiso   1.00
C3149  C     0.79226   0.49939   0.64304   0.00000  Uiso   1.00
C3150  C     0.79879   0.50158   0.59785   0.00000  Uiso   1.00
C3151  C     0.80314   0.46339   0.66359   0.00000  Uiso   1.00
C3152  C     0.77892   0.49343   0.53589   0.00000  Uiso   1.00
C3153  C     0.79724   0.45034   0.64817   0.00000  Uiso   1.00
C3154  C     0.73815   0.41349   0.60087   0.00000  Uiso   1.00
C3155  C     0.78121   0.41613   0.56318   0.00000  Uiso   1.00
C3156  C     0.81457   0.42177   0.55901   0.00000  Uiso   1.00
C3157  C     0.75679   0.36518   0.59288   0.00000  Uiso   1.00
C3158  C     0.82434   0.46964   0.62674   0.00000  Uiso   1.00
C3159  C     0.82005   0.51881   0.53326   0.00000  Uiso   1.00
C3160  C     0.83394   0.46304   0.54173   0.00000  Uiso   1.00
C3161  C     0.76443   0.44682   0.61568   0.00000  Uiso   1.00
C3162  C     0.81476   0.50038   0.64829   0.00000  Uiso   1.00
C3163  C     0.78996   0.52606   0.62943   0.00000  Uiso   1.00
C3164  C     0.76151   0.46959   0.60320   0.00000  Uiso   1.00
C3165  C     0.78027   0.43795   0.55102   0.00000  Uiso   1.00
C3166  C     0.71498   0.43229   0.65665   0.00000  Uiso   1.00
C3167  C     0.81711   0.46503   0.58021   0.00000  Uiso   1.00
C3168  C     0.80736   0.48611   0.52267   0.00000  Uiso   1.00
C3169  C     0.75785   0.53428   0.67506   0.00000  Uiso   1.00
C3170  C     0.78268   0.39979   0.60207   0.00000  Uiso   1.00
C3171  C     0.79739   0.40230   0.56067   0.00000  Uiso   1.00
C3172  C     0.80921   0.54048   0.59649   0.00000  Uiso   1.00
C3173  C     0.71728   0.40993   0.63676   0.00000  Uiso   1.00
C3174  C     0.81188   0.46437   0.55401   0.00000  Uiso   1.00
C3175  C     0.77666   0.51328   0.64684   0.00000  Uiso   1.00
C3176  C     0.76471   0.38170   0.60468   0.00000  Uiso   1.00
C3177  C     0.78915   0.44780   0.62516   0.00000  Uiso   1.00
C3178  C     0.79466   0.40417   0.61981   0.00000  Uiso   1.00
C3179  C     0.66425   0.35933   0.68025   0.00000  Uiso   1.00
C3180  C     0.59142   0.21594   0.51184   0.00000  Uiso   1.00
C3181  C     0.52353   0.20687   0.50427   0.00000  Uiso   1.00
C3182  C     0.65326   0.22798   0.52437   0.00000  Uiso   1.00
C3183  C     0.56112   0.23400   0.53329   0.00000  Uiso   1.00
C3184  C     0.57788   0.23229   0.65063   0.00000  Uiso   1.00
C3185  C     0.57497   0.29318   0.63801   0.00000  Uiso   1.00
C3186  C     0.64098   0.33863   0.67167   0.00000  Uiso   1.00
C3187  C     0.53192   0.24174   0.53518   0.00000  Uiso   1.00
C3188  C     0.61204   0.22862   0.50726   0.00000  Uiso   1.00
C3189  C     0.62360   0.35311   0.67842   0.00000  Uiso   1.00
C3190  C     0.52720   0.20443   0.58695   0.00000  Uiso   1.00
C3191  C     0.51678   0.22215   0.64153   0.00000  Uiso   1.00
C3192  C     0.56534   0.21565   0.61101   0.00000  Uiso   1.00
C3193  C     0.64381   0.24422   0.57937   0.00000  Uiso   1.00
C3194  C     0.53185   0.23222   0.51087   0.00000  Uiso   1.00
C3195  C     0.58115   0.25177   0.59507   0.00000  Uiso   1.00
C3196  C     0.58330   0.22989   0.53003   0.00000  Uiso   1.00
C3197  C     0.61644   0.27870   0.59275   0.00000  Uiso   1.00
C3198  C     0.63139   0.28583   0.50800   0.00000  Uiso   1.00
C3199  C     0.66886   0.26253   0.55432   0.00000  Uiso   1.00
C3200  C     0.59322   0.26833   0.66850   0.00000  Uiso   1.00
C3201  C     0.60292   0.30895   0.66714   0.00000  Uiso   1.00
C3202  C     0.63280   0.25021   0.65702   0.00000  Uiso   1.00
C3203  C     0.62741   0.26448   0.51469   0.00000  Uiso   1.00
C3204  C     0.64443   0.32590   0.62842   0.00000  Uiso   1.00
C3205  C     0.50060   0.23361   0.66484   0.00000  Uiso   1.00
C3206  C     0.57412   0.25731   0.65630   0.00000  Uiso   1.00
C3207  C     0.56494   0.29300   0.68031   0.00000  Uiso   1.00
C3208  C     0.66164   0.26527   0.61798   0.00000  Uiso   1.00
C3209  C     0.55395   0.25207   0.67021   0.00000  Uiso   1.00
C3210  C     0.54978   0.25599   0.57004   0.00000  Uiso   1.00
C3211  C     0.55754   0.21654   0.63413   0.00000  Uiso   1.00
C3212  C     0.65561   0.26930   0.59245   0.00000  Uiso   1.00
C3213  C     0.54528   0.26496   0.62654   0.00000  Uiso   1.00
C3214  C     0.62299   0.25374   0.59401   0.00000  Uiso   1.00
C3215  C     0.55058   0.20996   0.53981   0.00000  Uiso   1.00
C3216  C     0.62117   0.28714   0.61620   0.00000  Uiso   1.00
C3217  C     0.65250   0.30485   0.61529   0.00000  Uiso   1.00
C3218  C     0.58544   0.28940   0.66603   0.00000  Uiso   1.00
C3219  C     0.62330   0.24857   0.61946   0.00000  Uiso   1.00
C3220  C     0.65858   0.24121   0.54442   0.00000  Uiso   1.00
C3221  C     0.58662   0.21776   0.55220   0.00000  Uiso   1.00
C3222  C     0.52069   0.22794   0.57942   0.00000  Uiso   1.00
C3223  C     0.65474   0.29154   0.50865   0.00000  Uiso   1.00
C3224  C     0.60241   0.23888   0.58923   0.00000  Uiso   1.00
C3225  C     0.52017   0.25782   0.60958   0.00000  Uiso   1.00
C3226  C     0.50237   0.26202   0.62961   0.00000  Uiso   1.00
C3227  C     0.66545   0.25366   0.57917   0.00000  Uiso   1.00
C3228  C     0.66722   0.30688   0.54649   0.00000  Uiso   1.00
C3229  C     0.54362   0.23575   0.57773   0.00000  Uiso   1.00
C3230  C     0.60556   0.25139   0.50858   0.00000  Uiso   1.00
C3231  C     0.53984   0.24585   0.61609   0.00000  Uiso   1.00
C3232  C     0.62605   0.26357   0.54472   0.00000  Uiso   1.00
C3233  C     0.56281   0.20988   0.56028   0.00000  Uiso   1.00
C3234  C     0.51129   0.19709   0.52457   0.00000  Uiso   1.00
C3235  C     0.57197   0.26890   0.57997   0.00000  Uiso   1.00
C3236  C     0.67593   0.31744   0.66558   0.00000  Uiso   1.00
C3237  C     0.64095   0.30890   0.59258   0.00000  Uiso   1.00
C3238  C     0.57050   0.26908   0.63379   0.00000  Uiso   1.00
C3239  C     0.50282   0.23936   0.59325   0.00000  Uiso   1.00
C3240  C     0.55731   0.23727   0.50778   0.00000  Uiso   1.00
C3241  C     0.61166   0.31476   0.64700   0.00000  Uiso   1.00
C3242  C     0.62477   0.28832   0.66501   0.00000  Uiso   1.00
C3243  C     0.55245   0.25199   0.54394   0.00000  Uiso   1.00
C3244  C     0.64613   0.25003   0.62961   0.00000  Uiso   1.00
C3245  C     0.51921   0.24830   0.67529   0.00000  Uiso   1.00
C3246  C     0.61371   0.26648   0.65469   0.00000  Uiso   1.00
C3247  C     0.50614   0.20062   0.60278   0.00000  Uiso   1.00
C3248  C     0.56123   0.23619   0.59717   0.00000  Uiso   1.00
C3249  C     0.60168   0.23633   0.56262   0.00000  Uiso   1.00
C3250  C     0.63774   0.24627   0.55691   0.00000  Uiso   1.00
C3251  C     0.66138   0.33894   0.66548   0.00000  Uiso   1.00
C3252  C     0.58945   0.25355   0.53011   0.00000  Uiso   1.00
C3253  C     0.64433   0.28857   0.62601   0.00000  Uiso   1.00
C3254  C     0.65897   0.28373   0.55026   0.00000  Uiso   1.00
C3255  C     0.58696   0.26745   0.61568   0.00000  Uiso   1.00
C3256  C     0.63565   0.32519   0.64920   0.00000  Uiso   1.00
C3257  C     0.60120   0.25982   0.54931   0.00000  Uiso   1.00
C3258  C     0.66862   0.28905   0.65730   0.00000  Uiso   1.00
C3259  C     0.53227   0.25528   0.65774   0.00000  Uiso   1.00
C3260  C     0.63698   0.28529   0.58164   0.00000  Uiso   1.00
C3261  C     0.60604   0.21835   0.60461   0.00000  Uiso   1.00
C3262  C     0.62113   0.22944   0.55469   0.00000  Uiso   1.00
C3263  C     0.51602   0.22473   0.55419   0.00000  Uiso   1.00
C3264  C     0.53939   0.23453   0.63662   0.00000  Uiso   1.00
C3265  C     0.63577   0.28346   0.55633   0.00000  Uiso   1.00
C3266  C     0.52566   0.20409   0.54525   0.00000  Uiso   1.00
C3267  C     0.66363   0.34645   0.63913   0.00000  Uiso   1.00
C3268  C     0.54246   0.29248   0.66549   0.00000  Uiso   1.00
C3269  C     0.61006   0.26817   0.62900   0.00000  Uiso   1.00
C3270  C     0.64506   0.29651   0.64810   0.00000  Uiso   1.00
C3271  C     0.52950   0.27334   0.64607   0.00000  Uiso   1.00
C3272  C     0.50649   0.28102   0.64107   0.00000  Uiso   1.00
Cu3273 Cu    0.60392   0.50452   0.52847   0.00000  Uiso   1.00
Cu3274 Cu    0.39092   0.40614   0.38934   0.00000  Uiso   1.00
Cu3275 Cu    0.60391   0.52911   0.56325   0.00000  Uiso   1.00
Cu3276 Cu    0.36962   0.36925   0.38934   0.00000  Uiso   1.00
Cu3277 Cu    0.58261   0.49222   0.56325   0.00000  Uiso   1.00
Cu3278 Cu    0.41222   0.36925   0.38934   0.00000  Uiso   1.00
Cu3279 Cu    0.62521   0.49222   0.56325   0.00000  Uiso   1.00
Cu3280 Cu    0.60391   0.45533   0.56325   0.00000  Uiso   1.00
Cu3281 Cu    0.39092   0.35695   0.42412   0.00000  Uiso   1.00
Cu3282 Cu    0.60392   0.47992   0.59803   0.00000  Uiso   1.00
Cu3283 Cu    0.58262   0.44303   0.59803   0.00000  Uiso   1.00
Cu3284 Cu    0.41222   0.32006   0.42412   0.00000  Uiso   1.00
Cu3285 Cu    0.62522   0.44303   0.59803   0.00000  Uiso   1.00
Cu3286 Cu    0.60392   0.40614   0.59803   0.00000  Uiso   1.00
Cu3287 Cu    0.39092   0.30776   0.45890   0.00000  Uiso   1.00
Cu3288 Cu    0.60392   0.43074   0.63281   0.00000  Uiso   1.00
Cu3289 Cu    0.58262   0.39384   0.63281   0.00000  Uiso   1.00
Cu3290 Cu    0.58262   0.59060   0.49368   0.00000  Uiso   1.00
Cu3291 Cu    0.60392   0.55371   0.49368   0.00000  Uiso   1.00
Cu3292 Cu    0.39092   0.45533   0.35456   0.00000  Uiso   1.00
Cu3293 Cu    0.60392   0.57830   0.52847   0.00000  Uiso   1.00
Cu3294 Cu    0.58262   0.54141   0.52847   0.00000  Uiso   1.00
Cu3295 Cu    0.41221   0.41844   0.35456   0.00000  Uiso   1.00
Cu3296 Cu    0.62522   0.54141   0.52847   0.00000  Uiso   1.00
Cu3297 Cu    0.43352   0.40614   0.38934   0.00000  Uiso   1.00
Cu3298 Cu    0.43352   0.43074   0.42412   0.00000  Uiso   1.00
Cu3299 Cu    0.41222   0.39384   0.42412   0.00000  Uiso   1.00
Cu3300 Cu    0.62522   0.51682   0.59803   0.00000  Uiso   1.00
Cu3301 Cu    0.45482   0.39384   0.42412   0.00000  Uiso   1.00
Cu3302 Cu    0.43352   0.35695   0.42412   0.00000  Uiso   1.00
Cu3303 Cu    0.43351   0.38154   0.45890   0.00000  Uiso   1.00
Cu3304 Cu    0.41221   0.34465   0.45890   0.00000  Uiso   1.00
Cu3305 Cu    0.45481   0.34465   0.45890   0.00000  Uiso   1.00
Cu3306 Cu    0.43351   0.30776   0.45890   0.00000  Uiso   1.00
Cu3307 Cu    0.43352   0.33235   0.49368   0.00000  Uiso   1.00
Cu3308 Cu    0.41222   0.29546   0.49368   0.00000  Uiso   1.00
Cu3309 Cu    0.45482   0.29546   0.49368   0.00000  Uiso   1.00
Cu3310 Cu    0.43351   0.52911   0.35456   0.00000  Uiso   1.00
Cu3311 Cu    0.43352   0.28317   0.52847   0.00000  Uiso   1.00
Cu3312 Cu    0.41221   0.49222   0.35456   0.00000  Uiso   1.00
Cu3313 Cu    0.45481   0.49222   0.35456   0.00000  Uiso   1.00
Cu3314 Cu    0.43351   0.45533   0.35456   0.00000  Uiso   1.00
Cu3315 Cu    0.43352   0.47992   0.38934   0.00000  Uiso   1.00
Cu3316 Cu    0.41222   0.44303   0.38934   0.00000  Uiso   1.00
Cu3317 Cu    0.45482   0.44303   0.38934   0.00000  Uiso   1.00
Cu3318 Cu    0.47612   0.43074   0.42412   0.00000  Uiso   1.00
Cu3319 Cu    0.47611   0.45533   0.45890   0.00000  Uiso   1.00
Cu3320 Cu    0.45481   0.41844   0.45890   0.00000  Uiso   1.00
Cu3321 Cu    0.49741   0.41844   0.45890   0.00000  Uiso   1.00
Cu3322 Cu    0.47611   0.38154   0.45890   0.00000  Uiso   1.00
Cu3323 Cu    0.47612   0.40614   0.49368   0.00000  Uiso   1.00
Cu3324 Cu    0.45482   0.36925   0.49368   0.00000  Uiso   1.00
Cu3325 Cu    0.49742   0.36925   0.49368   0.00000  Uiso   1.00
Cu3326 Cu    0.47612   0.33235   0.49368   0.00000  Uiso   1.00
Cu3327 Cu    0.47612   0.35695   0.52847   0.00000  Uiso   1.00
Cu3328 Cu    0.45482   0.32006   0.52847   0.00000  Uiso   1.00
Cu3329 Cu    0.49742   0.32006   0.52847   0.00000  Uiso   1.00
Cu3330 Cu    0.47611   0.52911   0.35456   0.00000  Uiso   1.00
Cu3331 Cu    0.47612   0.28317   0.52847   0.00000  Uiso   1.00
Cu3332 Cu    0.47612   0.55371   0.38934   0.00000  Uiso   1.00
Cu3333 Cu    0.47611   0.30776   0.56325   0.00000  Uiso   1.00
Cu3334 Cu    0.45482   0.51682   0.38934   0.00000  Uiso   1.00
Cu3335 Cu    0.49742   0.51682   0.38934   0.00000  Uiso   1.00
Cu3336 Cu    0.47612   0.47992   0.38934   0.00000  Uiso   1.00
Cu3337 Cu    0.47612   0.50452   0.42412   0.00000  Uiso   1.00
Cu3338 Cu    0.45482   0.46763   0.42412   0.00000  Uiso   1.00
Cu3339 Cu    0.49742   0.46763   0.42412   0.00000  Uiso   1.00
Cu3340 Cu    0.51871   0.45533   0.45890   0.00000  Uiso   1.00
Cu3341 Cu    0.51872   0.47992   0.49368   0.00000  Uiso   1.00
Cu3342 Cu    0.49742   0.44303   0.49368   0.00000  Uiso   1.00
Cu3343 Cu    0.54002   0.44303   0.49368   0.00000  Uiso   1.00
Cu3344 Cu    0.51872   0.40614   0.49368   0.00000  Uiso   1.00
Cu3345 Cu    0.51872   0.43074   0.52847   0.00000  Uiso   1.00
Cu3346 Cu    0.49742   0.39384   0.52847   0.00000  Uiso   1.00
Cu3347 Cu    0.54002   0.39384   0.52847   0.00000  Uiso   1.00
Cu3348 Cu    0.51872   0.35695   0.52847   0.00000  Uiso   1.00
Cu3349 Cu    0.51871   0.38154   0.56325   0.00000  Uiso   1.00
Cu3350 Cu    0.49742   0.59060   0.38934   0.00000  Uiso   1.00
Cu3351 Cu    0.49741   0.34465   0.56325   0.00000  Uiso   1.00
Cu3352 Cu    0.54001   0.34465   0.56325   0.00000  Uiso   1.00
Cu3353 Cu    0.51872   0.55371   0.38934   0.00000  Uiso   1.00
Cu3354 Cu    0.51871   0.30776   0.56325   0.00000  Uiso   1.00
Cu3355 Cu    0.51872   0.57830   0.42412   0.00000  Uiso   1.00
Cu3356 Cu    0.51872   0.33235   0.59803   0.00000  Uiso   1.00
Cu3357 Cu    0.49742   0.54141   0.42412   0.00000  Uiso   1.00
Cu3358 Cu    0.49742   0.29546   0.59803   0.00000  Uiso   1.00
Cu3359 Cu    0.54002   0.54141   0.42412   0.00000  Uiso   1.00
Cu3360 Cu    0.51872   0.50452   0.42412   0.00000  Uiso   1.00
Cu3361 Cu    0.51871   0.52911   0.45890   0.00000  Uiso   1.00
Cu3362 Cu    0.49741   0.49222   0.45890   0.00000  Uiso   1.00
Cu3363 Cu    0.54001   0.49222   0.45890   0.00000  Uiso   1.00
Cu3364 Cu    0.56132   0.47992   0.49368   0.00000  Uiso   1.00
Cu3365 Cu    0.56132   0.50452   0.52847   0.00000  Uiso   1.00
Cu3366 Cu    0.54002   0.46763   0.52847   0.00000  Uiso   1.00
Cu3367 Cu    0.58262   0.46763   0.52847   0.00000  Uiso   1.00
Cu3368 Cu    0.56132   0.43074   0.52847   0.00000  Uiso   1.00
Cu3369 Cu    0.56131   0.45533   0.56325   0.00000  Uiso   1.00
Cu3370 Cu    0.54001   0.41844   0.56325   0.00000  Uiso   1.00
Cu3371 Cu    0.58261   0.41844   0.56325   0.00000  Uiso   1.00
Cu3372 Cu    0.56131   0.38154   0.56325   0.00000  Uiso   1.00
Cu3373 Cu    0.56132   0.40614   0.59803   0.00000  Uiso   1.00
Cu3374 Cu    0.54002   0.36925   0.59803   0.00000  Uiso   1.00
Cu3375 Cu    0.58262   0.36925   0.59803   0.00000  Uiso   1.00
Cu3376 Cu    0.56132   0.57830   0.42412   0.00000  Uiso   1.00
Cu3377 Cu    0.56132   0.33235   0.59803   0.00000  Uiso   1.00
Cu3378 Cu    0.56131   0.60290   0.45890   0.00000  Uiso   1.00
Cu3379 Cu    0.56132   0.35695   0.63281   0.00000  Uiso   1.00
Cu3380 Cu    0.54001   0.56600   0.45890   0.00000  Uiso   1.00
Cu3381 Cu    0.58261   0.56600   0.45890   0.00000  Uiso   1.00
Cu3382 Cu    0.56131   0.52911   0.45890   0.00000  Uiso   1.00
Cu3383 Cu    0.56132   0.55371   0.49368   0.00000  Uiso   1.00
Cu3384 Cu    0.54002   0.51682   0.49368   0.00000  Uiso   1.00
Cu3385 Cu    0.58262   0.51682   0.49368   0.00000  Uiso   1.00
Cu3386 Cu    0.56131   0.52911   0.56325   0.00000  Uiso   1.00
Cu3387 Cu    0.34832   0.43074   0.42412   0.00000  Uiso   1.00
Cu3388 Cu    0.56132   0.55371   0.59803   0.00000  Uiso   1.00
Cu3389 Cu    0.54002   0.51682   0.59803   0.00000  Uiso   1.00
Cu3390 Cu    0.36962   0.39384   0.42412   0.00000  Uiso   1.00
Cu3391 Cu    0.58262   0.51682   0.59803   0.00000  Uiso   1.00
Cu3392 Cu    0.56132   0.47992   0.59803   0.00000  Uiso   1.00
Cu3393 Cu    0.34832   0.38154   0.45890   0.00000  Uiso   1.00
Cu3394 Cu    0.56132   0.50452   0.63281   0.00000  Uiso   1.00
Cu3395 Cu    0.54002   0.46763   0.63281   0.00000  Uiso   1.00
Cu3396 Cu    0.36962   0.34465   0.45890   0.00000  Uiso   1.00
Cu3397 Cu    0.58262   0.46763   0.63281   0.00000  Uiso   1.00
Cu3398 Cu    0.56132   0.43074   0.63281   0.00000  Uiso   1.00
Cu3399 Cu    0.56132   0.57830   0.52847   0.00000  Uiso   1.00
Cu3400 Cu    0.54001   0.56600   0.56325   0.00000  Uiso   1.00
Cu3401 Cu    0.36962   0.44303   0.38934   0.00000  Uiso   1.00
Cu3402 Cu    0.58261   0.56600   0.56325   0.00000  Uiso   1.00
Cu3403 Cu    0.39092   0.43074   0.42412   0.00000  Uiso   1.00
Cu3404 Cu    0.39092   0.45533   0.45890   0.00000  Uiso   1.00
Cu3405 Cu    0.36962   0.41844   0.45890   0.00000  Uiso   1.00
Cu3406 Cu    0.41221   0.41844   0.45890   0.00000  Uiso   1.00
Cu3407 Cu    0.39092   0.38154   0.45890   0.00000  Uiso   1.00
Cu3408 Cu    0.39092   0.40614   0.49368   0.00000  Uiso   1.00
Cu3409 Cu    0.36962   0.36925   0.49368   0.00000  Uiso   1.00
Cu3410 Cu    0.41222   0.36925   0.49368   0.00000  Uiso   1.00
Cu3411 Cu    0.39092   0.33235   0.49368   0.00000  Uiso   1.00
Cu3412 Cu    0.39092   0.35695   0.52847   0.00000  Uiso   1.00
Cu3413 Cu    0.36962   0.32006   0.52847   0.00000  Uiso   1.00
Cu3414 Cu    0.41222   0.32006   0.52847   0.00000  Uiso   1.00
Cu3415 Cu    0.36962   0.51682   0.38934   0.00000  Uiso   1.00
Cu3416 Cu    0.41222   0.51682   0.38934   0.00000  Uiso   1.00
Cu3417 Cu    0.39092   0.47992   0.38934   0.00000  Uiso   1.00
Cu3418 Cu    0.39092   0.50452   0.42412   0.00000  Uiso   1.00
Cu3419 Cu    0.36962   0.46763   0.42412   0.00000  Uiso   1.00
Cu3420 Cu    0.41222   0.46763   0.42412   0.00000  Uiso   1.00
Cu3421 Cu    0.43351   0.45533   0.45890   0.00000  Uiso   1.00
Cu3422 Cu    0.43352   0.47992   0.49368   0.00000  Uiso   1.00
Cu3423 Cu    0.41222   0.44303   0.49368   0.00000  Uiso   1.00
Cu3424 Cu    0.45482   0.44303   0.49368   0.00000  Uiso   1.00
Cu3425 Cu    0.43352   0.40614   0.49368   0.00000  Uiso   1.00
Cu3426 Cu    0.43352   0.43074   0.52847   0.00000  Uiso   1.00
Cu3427 Cu    0.41222   0.39384   0.52847   0.00000  Uiso   1.00
Cu3428 Cu    0.45482   0.39384   0.52847   0.00000  Uiso   1.00
Cu3429 Cu    0.43352   0.35695   0.52847   0.00000  Uiso   1.00
Cu3430 Cu    0.43351   0.38154   0.56325   0.00000  Uiso   1.00
Cu3431 Cu    0.41221   0.34465   0.56325   0.00000  Uiso   1.00
Cu3432 Cu    0.45481   0.34465   0.56325   0.00000  Uiso   1.00
Cu3433 Cu    0.43352   0.55371   0.38934   0.00000  Uiso   1.00
Cu3434 Cu    0.43351   0.30776   0.56325   0.00000  Uiso   1.00
Cu3435 Cu    0.43352   0.57830   0.42412   0.00000  Uiso   1.00
Cu3436 Cu    0.43352   0.33235   0.59803   0.00000  Uiso   1.00
Cu3437 Cu    0.41222   0.54141   0.42412   0.00000  Uiso   1.00
Cu3438 Cu    0.45482   0.54141   0.42412   0.00000  Uiso   1.00
Cu3439 Cu    0.43352   0.50452   0.42412   0.00000  Uiso   1.00
Cu3440 Cu    0.43351   0.52911   0.45890   0.00000  Uiso   1.00
Cu3441 Cu    0.41221   0.49222   0.45890   0.00000  Uiso   1.00
Cu3442 Cu    0.45481   0.49222   0.45890   0.00000  Uiso   1.00
Cu3443 Cu    0.47612   0.47992   0.49368   0.00000  Uiso   1.00
Cu3444 Cu    0.47612   0.50452   0.52847   0.00000  Uiso   1.00
Cu3445 Cu    0.45482   0.46763   0.52847   0.00000  Uiso   1.00
Cu3446 Cu    0.49742   0.46763   0.52847   0.00000  Uiso   1.00
Cu3447 Cu    0.47612   0.43074   0.52847   0.00000  Uiso   1.00
Cu3448 Cu    0.47611   0.45533   0.56325   0.00000  Uiso   1.00
Cu3449 Cu    0.45481   0.41844   0.56325   0.00000  Uiso   1.00
Cu3450 Cu    0.49741   0.41844   0.56325   0.00000  Uiso   1.00
Cu3451 Cu    0.47611   0.38154   0.56325   0.00000  Uiso   1.00
Cu3452 Cu    0.47612   0.40614   0.59803   0.00000  Uiso   1.00
Cu3453 Cu    0.45482   0.36925   0.59803   0.00000  Uiso   1.00
Cu3454 Cu    0.49742   0.36925   0.59803   0.00000  Uiso   1.00
Cu3455 Cu    0.47612   0.57830   0.42412   0.00000  Uiso   1.00
Cu3456 Cu    0.47612   0.33235   0.59803   0.00000  Uiso   1.00
Cu3457 Cu    0.47611   0.60290   0.45890   0.00000  Uiso   1.00
Cu3458 Cu    0.47612   0.35695   0.63281   0.00000  Uiso   1.00
Cu3459 Cu    0.45481   0.56600   0.45890   0.00000  Uiso   1.00
Cu3460 Cu    0.49741   0.56600   0.45890   0.00000  Uiso   1.00
Cu3461 Cu    0.47611   0.52911   0.45890   0.00000  Uiso   1.00
Cu3462 Cu    0.47612   0.55371   0.49368   0.00000  Uiso   1.00
Cu3463 Cu    0.45482   0.51682   0.49368   0.00000  Uiso   1.00
Cu3464 Cu    0.49742   0.51682   0.49368   0.00000  Uiso   1.00
Cu3465 Cu    0.51872   0.50452   0.52847   0.00000  Uiso   1.00
Cu3466 Cu    0.51871   0.52911   0.56325   0.00000  Uiso   1.00
Cu3467 Cu    0.49741   0.49222   0.56325   0.00000  Uiso   1.00
Cu3468 Cu    0.54001   0.49222   0.56325   0.00000  Uiso   1.00
Cu3469 Cu    0.51871   0.45533   0.56325   0.00000  Uiso   1.00
Cu3470 Cu    0.51872   0.47992   0.59803   0.00000  Uiso   1.00
Cu3471 Cu    0.49742   0.44303   0.59803   0.00000  Uiso   1.00
Cu3472 Cu    0.54002   0.44303   0.59803   0.00000  Uiso   1.00
Cu3473 Cu    0.51872   0.40614   0.59803   0.00000  Uiso   1.00
Cu3474 Cu    0.51872   0.43074   0.63281   0.00000  Uiso   1.00
Cu3475 Cu    0.49742   0.39384   0.63281   0.00000  Uiso   1.00
Cu3476 Cu    0.54002   0.39384   0.63281   0.00000  Uiso   1.00
Cu3477 Cu    0.51871   0.60290   0.45890   0.00000  Uiso   1.00
Cu3478 Cu    0.51872   0.35695   0.63281   0.00000  Uiso   1.00
Cu3479 Cu    0.49742   0.59060   0.49368   0.00000  Uiso   1.00
Cu3480 Cu    0.54002   0.59060   0.49368   0.00000  Uiso   1.00
Cu3481 Cu    0.51872   0.55371   0.49368   0.00000  Uiso   1.00
Cu3482 Cu    0.51872   0.57830   0.52847   0.00000  Uiso   1.00
Cu3483 Cu    0.49742   0.54141   0.52847   0.00000  Uiso   1.00
Cu3484 Cu    0.54002   0.54141   0.52847   0.00000  Uiso   1.00
Cu3485 Cu    0.51872   0.55371   0.59803   0.00000  Uiso   1.00
Cu3486 Cu    0.49742   0.54141   0.63281   0.00000  Uiso   1.00
Cu3487 Cu    0.32702   0.41844   0.45890   0.00000  Uiso   1.00
Cu3488 Cu    0.54002   0.54141   0.63281   0.00000  Uiso   1.00
Cu3489 Cu    0.51872   0.50452   0.63281   0.00000  Uiso   1.00
Cu3490 Cu    0.51871   0.45533   0.66760   0.00000  Uiso   1.00
Cu3491 Cu    0.51871   0.60290   0.56325   0.00000  Uiso   1.00
Cu3492 Cu    0.49742   0.59060   0.59803   0.00000  Uiso   1.00
Cu3493 Cu    0.34832   0.45533   0.45890   0.00000  Uiso   1.00
Cu3494 Cu    0.34832   0.47992   0.49368   0.00000  Uiso   1.00
Cu3495 Cu    0.32702   0.44303   0.49368   0.00000  Uiso   1.00
Cu3496 Cu    0.36962   0.44303   0.49368   0.00000  Uiso   1.00
Cu3497 Cu    0.34832   0.40614   0.49368   0.00000  Uiso   1.00
Cu3498 Cu    0.34832   0.43074   0.52847   0.00000  Uiso   1.00
Cu3499 Cu    0.32702   0.39384   0.52847   0.00000  Uiso   1.00
Cu3500 Cu    0.36962   0.39384   0.52847   0.00000  Uiso   1.00
Cu3501 Cu    0.34832   0.35695   0.52847   0.00000  Uiso   1.00
Cu3502 Cu    0.34832   0.38154   0.56325   0.00000  Uiso   1.00
Cu3503 Cu    0.36962   0.34465   0.56325   0.00000  Uiso   1.00
Cu3504 Cu    0.36962   0.54141   0.42412   0.00000  Uiso   1.00
Cu3505 Cu    0.34832   0.50452   0.42412   0.00000  Uiso   1.00
Cu3506 Cu    0.34832   0.52911   0.45890   0.00000  Uiso   1.00
Cu3507 Cu    0.36962   0.49222   0.45890   0.00000  Uiso   1.00
Cu3508 Cu    0.39092   0.47992   0.49368   0.00000  Uiso   1.00
Cu3509 Cu    0.39092   0.50452   0.52847   0.00000  Uiso   1.00
Cu3510 Cu    0.36962   0.46763   0.52847   0.00000  Uiso   1.00
Cu3511 Cu    0.41222   0.46763   0.52847   0.00000  Uiso   1.00
Cu3512 Cu    0.39092   0.43074   0.52847   0.00000  Uiso   1.00
Cu3513 Cu    0.39092   0.45533   0.56325   0.00000  Uiso   1.00
Cu3514 Cu    0.36962   0.41844   0.56325   0.00000  Uiso   1.00
Cu3515 Cu    0.41221   0.41844   0.56325   0.00000  Uiso   1.00
Cu3516 Cu    0.39092   0.38154   0.56325   0.00000  Uiso   1.00
Cu3517 Cu    0.39092   0.40614   0.59803   0.00000  Uiso   1.00
Cu3518 Cu    0.36962   0.36925   0.59803   0.00000  Uiso   1.00
Cu3519 Cu    0.41222   0.36925   0.59803   0.00000  Uiso   1.00
Cu3520 Cu    0.41221   0.56600   0.45890   0.00000  Uiso   1.00
Cu3521 Cu    0.39092   0.52911   0.45890   0.00000  Uiso   1.00
Cu3522 Cu    0.39092   0.55371   0.49368   0.00000  Uiso   1.00
Cu3523 Cu    0.36962   0.51682   0.49368   0.00000  Uiso   1.00
Cu3524 Cu    0.41222   0.51682   0.49368   0.00000  Uiso   1.00
Cu3525 Cu    0.43352   0.50452   0.52847   0.00000  Uiso   1.00
Cu3526 Cu    0.43351   0.52911   0.56325   0.00000  Uiso   1.00
Cu3527 Cu    0.62522   0.36925   0.38934   0.00000  Uiso   1.00
Cu3528 Cu    0.41221   0.49222   0.56325   0.00000  Uiso   1.00
Cu3529 Cu    0.45481   0.49222   0.56325   0.00000  Uiso   1.00
Cu3530 Cu    0.43351   0.45533   0.56325   0.00000  Uiso   1.00
Cu3531 Cu    0.43352   0.47992   0.59803   0.00000  Uiso   1.00
Cu3532 Cu    0.41222   0.44303   0.59803   0.00000  Uiso   1.00
Cu3533 Cu    0.45482   0.44303   0.59803   0.00000  Uiso   1.00
Cu3534 Cu    0.43352   0.40614   0.59803   0.00000  Uiso   1.00
Cu3535 Cu    0.43352   0.43074   0.63281   0.00000  Uiso   1.00
Cu3536 Cu    0.41222   0.39384   0.63281   0.00000  Uiso   1.00
Cu3537 Cu    0.45482   0.39384   0.63281   0.00000  Uiso   1.00
Cu3538 Cu    0.43351   0.60290   0.45890   0.00000  Uiso   1.00
Cu3539 Cu    0.43352   0.35695   0.63281   0.00000  Uiso   1.00
Cu3540 Cu    0.41222   0.59060   0.49368   0.00000  Uiso   1.00
Cu3541 Cu    0.45482   0.59060   0.49368   0.00000  Uiso   1.00
Cu3542 Cu    0.43352   0.55371   0.49368   0.00000  Uiso   1.00
Cu3543 Cu    0.43352   0.57830   0.52847   0.00000  Uiso   1.00
Cu3544 Cu    0.41222   0.54141   0.52847   0.00000  Uiso   1.00
Cu3545 Cu    0.45482   0.54141   0.52847   0.00000  Uiso   1.00
Cu3546 Cu    0.47611   0.52911   0.56325   0.00000  Uiso   1.00
Cu3547 Cu    0.47612   0.55371   0.59803   0.00000  Uiso   1.00
Cu3548 Cu    0.45482   0.51682   0.59803   0.00000  Uiso   1.00
Cu3549 Cu    0.49742   0.51682   0.59803   0.00000  Uiso   1.00
Cu3550 Cu    0.47612   0.47992   0.59803   0.00000  Uiso   1.00
Cu3551 Cu    0.47612   0.50452   0.63281   0.00000  Uiso   1.00
Cu3552 Cu    0.45482   0.46763   0.63281   0.00000  Uiso   1.00
Cu3553 Cu    0.49742   0.46763   0.63281   0.00000  Uiso   1.00
Cu3554 Cu    0.47612   0.43074   0.63281   0.00000  Uiso   1.00
Cu3555 Cu    0.47611   0.45533   0.66760   0.00000  Uiso   1.00
Cu3556 Cu    0.49741   0.41844   0.66760   0.00000  Uiso   1.00
Cu3557 Cu    0.49742   0.61520   0.52847   0.00000  Uiso   1.00
Cu3558 Cu    0.47612   0.57830   0.52847   0.00000  Uiso   1.00
Cu3559 Cu    0.47611   0.60290   0.56325   0.00000  Uiso   1.00
Cu3560 Cu    0.45481   0.56600   0.56325   0.00000  Uiso   1.00
Cu3561 Cu    0.49741   0.56600   0.56325   0.00000  Uiso   1.00
Cu3562 Cu    0.66782   0.44303   0.49368   0.00000  Uiso   1.00
Cu3563 Cu    0.66781   0.49222   0.45890   0.00000  Uiso   1.00
Cu3564 Cu    0.51871   0.38154   0.35456   0.00000  Uiso   1.00
Cu3565 Cu    0.49741   0.34465   0.35456   0.00000  Uiso   1.00
Cu3566 Cu    0.54001   0.34465   0.35456   0.00000  Uiso   1.00
Cu3567 Cu    0.32702   0.46763   0.52847   0.00000  Uiso   1.00
Cu3568 Cu    0.51872   0.33235   0.38934   0.00000  Uiso   1.00
Cu3569 Cu    0.49742   0.29546   0.38934   0.00000  Uiso   1.00
Cu3570 Cu    0.51872   0.28317   0.42412   0.00000  Uiso   1.00
Cu3571 Cu    0.51872   0.43074   0.31977   0.00000  Uiso   1.00
Cu3572 Cu    0.56131   0.38154   0.35456   0.00000  Uiso   1.00
Cu3573 Cu    0.34832   0.50452   0.52847   0.00000  Uiso   1.00
Cu3574 Cu    0.56132   0.40614   0.38934   0.00000  Uiso   1.00
Cu3575 Cu    0.54002   0.36925   0.38934   0.00000  Uiso   1.00
Cu3576 Cu    0.58262   0.36925   0.38934   0.00000  Uiso   1.00
Cu3577 Cu    0.36962   0.49222   0.56325   0.00000  Uiso   1.00
Cu3578 Cu    0.56132   0.33235   0.38934   0.00000  Uiso   1.00
Cu3579 Cu    0.34832   0.45533   0.56325   0.00000  Uiso   1.00
Cu3580 Cu    0.56132   0.35695   0.42412   0.00000  Uiso   1.00
Cu3581 Cu    0.54002   0.32006   0.42412   0.00000  Uiso   1.00
Cu3582 Cu    0.58262   0.32006   0.42412   0.00000  Uiso   1.00
Cu3583 Cu    0.36962   0.44303   0.59803   0.00000  Uiso   1.00
Cu3584 Cu    0.56131   0.30776   0.45890   0.00000  Uiso   1.00
Cu3585 Cu    0.56131   0.45533   0.35456   0.00000  Uiso   1.00
Cu3586 Cu    0.54001   0.41844   0.35456   0.00000  Uiso   1.00
Cu3587 Cu    0.58261   0.41844   0.35456   0.00000  Uiso   1.00
Cu3588 Cu    0.36962   0.54141   0.52847   0.00000  Uiso   1.00
Cu3589 Cu    0.60392   0.40614   0.38934   0.00000  Uiso   1.00
Cu3590 Cu    0.39092   0.52911   0.56325   0.00000  Uiso   1.00
Cu3591 Cu    0.60392   0.43074   0.42412   0.00000  Uiso   1.00
Cu3592 Cu    0.58262   0.39384   0.42412   0.00000  Uiso   1.00
Cu3593 Cu    0.36962   0.51682   0.59803   0.00000  Uiso   1.00
Cu3594 Cu    0.62522   0.39384   0.42412   0.00000  Uiso   1.00
Cu3595 Cu    0.41222   0.51682   0.59803   0.00000  Uiso   1.00
Cu3596 Cu    0.60392   0.35695   0.42412   0.00000  Uiso   1.00
Cu3597 Cu    0.39092   0.47992   0.59803   0.00000  Uiso   1.00
Cu3598 Cu    0.60391   0.38154   0.45890   0.00000  Uiso   1.00
Cu3599 Cu    0.58261   0.34465   0.45890   0.00000  Uiso   1.00
Cu3600 Cu    0.62521   0.34465   0.45890   0.00000  Uiso   1.00
Cu3601 Cu    0.41222   0.46763   0.63281   0.00000  Uiso   1.00
Cu3602 Cu    0.60391   0.30776   0.45890   0.00000  Uiso   1.00
Cu3603 Cu    0.39092   0.43074   0.63281   0.00000  Uiso   1.00
Cu3604 Cu    0.60392   0.33235   0.49368   0.00000  Uiso   1.00
Cu3605 Cu    0.58262   0.29546   0.49368   0.00000  Uiso   1.00
Cu3606 Cu    0.58261   0.49222   0.35456   0.00000  Uiso   1.00
Cu3607 Cu    0.60391   0.45533   0.35456   0.00000  Uiso   1.00
Cu3608 Cu    0.39092   0.57830   0.52847   0.00000  Uiso   1.00
Cu3609 Cu    0.60392   0.47992   0.38934   0.00000  Uiso   1.00
Cu3610 Cu    0.58262   0.44303   0.38934   0.00000  Uiso   1.00
Cu3611 Cu    0.62522   0.44303   0.38934   0.00000  Uiso   1.00
Cu3612 Cu    0.41221   0.56600   0.56325   0.00000  Uiso   1.00
Cu3613 Cu    0.64652   0.43074   0.42412   0.00000  Uiso   1.00
Cu3614 Cu    0.43352   0.55371   0.59803   0.00000  Uiso   1.00
Cu3615 Cu    0.64651   0.45533   0.45890   0.00000  Uiso   1.00
Cu3616 Cu    0.62521   0.41844   0.45890   0.00000  Uiso   1.00
Cu3617 Cu    0.66781   0.41844   0.45890   0.00000  Uiso   1.00
Cu3618 Cu    0.45482   0.54141   0.63281   0.00000  Uiso   1.00
Cu3619 Cu    0.64651   0.38154   0.45890   0.00000  Uiso   1.00
Cu3620 Cu    0.43352   0.50452   0.63281   0.00000  Uiso   1.00
Cu3621 Cu    0.64652   0.40614   0.49368   0.00000  Uiso   1.00
Cu3622 Cu    0.62522   0.36925   0.49368   0.00000  Uiso   1.00
Cu3623 Cu    0.64652   0.35695   0.52847   0.00000  Uiso   1.00
Cu3624 Cu    0.62522   0.51682   0.38934   0.00000  Uiso   1.00
Cu3625 Cu    0.64652   0.50452   0.42412   0.00000  Uiso   1.00
Cu3626 Cu    0.62522   0.46763   0.42412   0.00000  Uiso   1.00
Cu3627 Cu    0.64652   0.47992   0.49368   0.00000  Uiso   1.00
Cu3628 Cu    0.43351   0.38154   0.35456   0.00000  Uiso   1.00
Cu3629 Cu    0.64652   0.50452   0.52847   0.00000  Uiso   1.00
Cu3630 Cu    0.62522   0.46763   0.52847   0.00000  Uiso   1.00
Cu3631 Cu    0.45481   0.34465   0.35456   0.00000  Uiso   1.00
Cu3632 Cu    0.66782   0.46763   0.52847   0.00000  Uiso   1.00
Cu3633 Cu    0.64652   0.43074   0.52847   0.00000  Uiso   1.00
Cu3634 Cu    0.43352   0.33235   0.38934   0.00000  Uiso   1.00
Cu3635 Cu    0.64651   0.45533   0.56325   0.00000  Uiso   1.00
Cu3636 Cu    0.62521   0.41844   0.56325   0.00000  Uiso   1.00
Cu3637 Cu    0.64651   0.38154   0.56325   0.00000  Uiso   1.00
Cu3638 Cu    0.62522   0.36925   0.59803   0.00000  Uiso   1.00
Cu3639 Cu    0.62521   0.56600   0.45890   0.00000  Uiso   1.00
Cu3640 Cu    0.64651   0.52911   0.45890   0.00000  Uiso   1.00
Cu3641 Cu    0.62522   0.51682   0.49368   0.00000  Uiso   1.00
Cu3642 Cu    0.47611   0.38154   0.35456   0.00000  Uiso   1.00
Cu3643 Cu    0.47612   0.40614   0.38934   0.00000  Uiso   1.00
Cu3644 Cu    0.45482   0.36925   0.38934   0.00000  Uiso   1.00
Cu3645 Cu    0.49742   0.36925   0.38934   0.00000  Uiso   1.00
Cu3646 Cu    0.47612   0.33235   0.38934   0.00000  Uiso   1.00
Cu3647 Cu    0.47612   0.35695   0.42412   0.00000  Uiso   1.00
Cu3648 Cu    0.45482   0.32006   0.42412   0.00000  Uiso   1.00
Cu3649 Cu    0.49742   0.32006   0.42412   0.00000  Uiso   1.00
Cu3650 Cu    0.47612   0.28317   0.42412   0.00000  Uiso   1.00
Cu3651 Cu    0.47611   0.30776   0.45890   0.00000  Uiso   1.00
Cu3652 Cu    0.49741   0.27087   0.45890   0.00000  Uiso   1.00
Cu3653 Cu    0.49742   0.46763   0.31977   0.00000  Uiso   1.00
Cu3654 Cu    0.47612   0.43074   0.31977   0.00000  Uiso   1.00
Cu3655 Cu    0.47611   0.45533   0.35456   0.00000  Uiso   1.00
Cu3656 Cu    0.45481   0.41844   0.35456   0.00000  Uiso   1.00
Cu3657 Cu    0.49741   0.41844   0.35456   0.00000  Uiso   1.00
Cu3658 Cu    0.51872   0.40614   0.38934   0.00000  Uiso   1.00
Cu3659 Cu    0.51872   0.43074   0.42412   0.00000  Uiso   1.00
Cu3660 Cu    0.49742   0.39384   0.42412   0.00000  Uiso   1.00
Cu3661 Cu    0.54002   0.39384   0.42412   0.00000  Uiso   1.00
Cu3662 Cu    0.51872   0.35695   0.42412   0.00000  Uiso   1.00
Cu3663 Cu    0.51871   0.38154   0.45890   0.00000  Uiso   1.00
Cu3664 Cu    0.49741   0.34465   0.45890   0.00000  Uiso   1.00
Cu3665 Cu    0.54001   0.34465   0.45890   0.00000  Uiso   1.00
Cu3666 Cu    0.51871   0.30776   0.45890   0.00000  Uiso   1.00
Cu3667 Cu    0.51872   0.33235   0.49368   0.00000  Uiso   1.00
Cu3668 Cu    0.49742   0.29546   0.49368   0.00000  Uiso   1.00
Cu3669 Cu    0.54002   0.29546   0.49368   0.00000  Uiso   1.00
Cu3670 Cu    0.51871   0.52911   0.35456   0.00000  Uiso   1.00
Cu3671 Cu    0.51872   0.28317   0.52847   0.00000  Uiso   1.00
Cu3672 Cu    0.49741   0.49222   0.35456   0.00000  Uiso   1.00
Cu3673 Cu    0.54001   0.49222   0.35456   0.00000  Uiso   1.00
Cu3674 Cu    0.51871   0.45533   0.35456   0.00000  Uiso   1.00
Cu3675 Cu    0.51872   0.47992   0.38934   0.00000  Uiso   1.00
Cu3676 Cu    0.49742   0.44303   0.38934   0.00000  Uiso   1.00
Cu3677 Cu    0.54002   0.44303   0.38934   0.00000  Uiso   1.00
Cu3678 Cu    0.56132   0.43074   0.42412   0.00000  Uiso   1.00
Cu3679 Cu    0.56131   0.45533   0.45890   0.00000  Uiso   1.00
Cu3680 Cu    0.54001   0.41844   0.45890   0.00000  Uiso   1.00
Cu3681 Cu    0.58261   0.41844   0.45890   0.00000  Uiso   1.00
Cu3682 Cu    0.56131   0.38154   0.45890   0.00000  Uiso   1.00
Cu3683 Cu    0.56132   0.40614   0.49368   0.00000  Uiso   1.00
Cu3684 Cu    0.54002   0.36925   0.49368   0.00000  Uiso   1.00
Cu3685 Cu    0.58262   0.36925   0.49368   0.00000  Uiso   1.00
Cu3686 Cu    0.56132   0.33235   0.49368   0.00000  Uiso   1.00
Cu3687 Cu    0.56132   0.35695   0.52847   0.00000  Uiso   1.00
Cu3688 Cu    0.54002   0.32006   0.52847   0.00000  Uiso   1.00
Cu3689 Cu    0.58262   0.32006   0.52847   0.00000  Uiso   1.00
Cu3690 Cu    0.56131   0.52911   0.35456   0.00000  Uiso   1.00
Cu3691 Cu    0.56132   0.28317   0.52847   0.00000  Uiso   1.00
Cu3692 Cu    0.56132   0.55371   0.38934   0.00000  Uiso   1.00
Cu3693 Cu    0.56131   0.30776   0.56325   0.00000  Uiso   1.00
Cu3694 Cu    0.54002   0.51682   0.38934   0.00000  Uiso   1.00
Cu3695 Cu    0.58262   0.51682   0.38934   0.00000  Uiso   1.00
Cu3696 Cu    0.56132   0.47992   0.38934   0.00000  Uiso   1.00
Cu3697 Cu    0.56132   0.50452   0.42412   0.00000  Uiso   1.00
Cu3698 Cu    0.54002   0.46763   0.42412   0.00000  Uiso   1.00
Cu3699 Cu    0.58262   0.46763   0.42412   0.00000  Uiso   1.00
Cu3700 Cu    0.60391   0.45533   0.45890   0.00000  Uiso   1.00
Cu3701 Cu    0.60392   0.47992   0.49368   0.00000  Uiso   1.00
Cu3702 Cu    0.58262   0.44303   0.49368   0.00000  Uiso   1.00
Cu3703 Cu    0.62522   0.44303   0.49368   0.00000  Uiso   1.00
Cu3704 Cu    0.60392   0.40614   0.49368   0.00000  Uiso   1.00
Cu3705 Cu    0.60392   0.43074   0.52847   0.00000  Uiso   1.00
Cu3706 Cu    0.58262   0.39384   0.52847   0.00000  Uiso   1.00
Cu3707 Cu    0.62522   0.39384   0.52847   0.00000  Uiso   1.00
Cu3708 Cu    0.60392   0.35695   0.52847   0.00000  Uiso   1.00
Cu3709 Cu    0.60391   0.38154   0.56325   0.00000  Uiso   1.00
Cu3710 Cu    0.58261   0.34465   0.56325   0.00000  Uiso   1.00
Cu3711 Cu    0.62521   0.34465   0.56325   0.00000  Uiso   1.00
Cu3712 Cu    0.58262   0.54141   0.42412   0.00000  Uiso   1.00
Cu3713 Cu    0.62522   0.54141   0.42412   0.00000  Uiso   1.00
Cu3714 Cu    0.60392   0.50452   0.42412   0.00000  Uiso   1.00
Cu3715 Cu    0.60391   0.52911   0.45890   0.00000  Uiso   1.00
Cu3716 Cu    0.58261   0.49222   0.45890   0.00000  Uiso   1.00
Cu3717 Cu    0.62521   0.49222   0.45890   0.00000  Uiso   1.00
C3718  C    -0.08857   0.19515   0.07716   0.00000  Uiso   1.00
O3719  O    -0.07172   0.18927   0.06827   0.00000  Uiso   1.00
O3720  O    -0.10535   0.20124   0.08645   0.00000  Uiso   1.00
C3721  C     0.44598   0.69748   0.12724   0.00000  Uiso   1.00
O3722  O     0.46536   0.69517   0.13103   0.00000  Uiso   1.00
O3723  O     0.42666   0.70076   0.12330   0.00000  Uiso   1.00
C3724  C     0.15076   0.43307   0.66562   0.00000  Uiso   1.00
O3725  O     0.13591   0.44446   0.65789   0.00000  Uiso   1.00
O3726  O     0.16684   0.42334   0.67249   0.00000  Uiso   1.00
C3727  C     0.80353  -0.02656   0.49256   0.00000  Uiso   1.00
O3728  O     0.78360  -0.02850   0.48965   0.00000  Uiso   1.00
O3729  O     0.82356  -0.02345   0.49315   0.00000  Uiso   1.00
C3730  C    -0.01286   0.38014   0.80983   0.00000  Uiso   1.00
O3731  O    -0.02187   0.39700   0.81659   0.00000  Uiso   1.00
O3732  O    -0.00305   0.36397   0.80365   0.00000  Uiso   1.00
C3733  C     0.07186   0.76340   0.58530   0.00000  Uiso   1.00
O3734  O     0.05290   0.75971   0.59079   0.00000  Uiso   1.00
O3735  O     0.09058   0.76757   0.57905   0.00000  Uiso   1.00
C3736  C     0.75929   0.50485   0.08585   0.00000  Uiso   1.00
O3737  O     0.73955   0.50032   0.08281   0.00000  Uiso   1.00
O3738  O     0.77822   0.51047   0.09198   0.00000  Uiso   1.00
C3739  C    -0.06466   0.90079   0.22695   0.00000  Uiso   1.00
O3740  O    -0.08151   0.89482   0.21875   0.00000  Uiso   1.00
O3741  O    -0.04708   0.90630   0.23430   0.00000  Uiso   1.00
C3742  C     0.79569   0.03678   0.12639   0.00000  Uiso   1.00
O3743  O     0.79959   0.05571   0.13177   0.00000  Uiso   1.00
O3744  O     0.79286   0.01783   0.12115   0.00000  Uiso   1.00
C3745  C     0.16679   0.27918   0.14865   0.00000  Uiso   1.00
O3746  O     0.14804   0.28059   0.14153   0.00000  Uiso   1.00
O3747  O     0.18594   0.27649   0.15459   0.00000  Uiso   1.00
C3748  C     0.69338   0.83715   0.31887   0.00000  Uiso   1.00
O3749  O     0.69062   0.83383   0.29931   0.00000  Uiso   1.00
O3750  O     0.69581   0.84133   0.33840   0.00000  Uiso   1.00
C3751  C    -0.18316   0.65448   0.29789   0.00000  Uiso   1.00
O3752  O    -0.17477   0.64153   0.28518   0.00000  Uiso   1.00
O3753  O    -0.19192   0.66686   0.31109   0.00000  Uiso   1.00
C3754  C     0.71176   0.32612   0.19538   0.00000  Uiso   1.00
O3755  O     0.69970   0.33235   0.20982   0.00000  Uiso   1.00
O3756  O     0.72353   0.32093   0.17975   0.00000  Uiso   1.00
C3757  C     0.07366   0.04281   0.70849   0.00000  Uiso   1.00
O3758  O     0.09041   0.05154   0.70197   0.00000  Uiso   1.00
O3759  O     0.05812   0.03323   0.71596   0.00000  Uiso   1.00
C3760  C     0.21285   0.27549   0.64382   0.00000  Uiso   1.00
O3761  O     0.20532   0.28290   0.66083   0.00000  Uiso   1.00
O3762  O     0.22015   0.26854   0.62657   0.00000  Uiso   1.00
C3763  C     0.69402   0.68693   0.84204   0.00000  Uiso   1.00
O3764  O     0.67683   0.68898   0.83259   0.00000  Uiso   1.00
O3765  O     0.71105   0.68421   0.85185   0.00000  Uiso   1.00
C3766  C     0.13472   0.19401   0.29680   0.00000  Uiso   1.00
O3767  O     0.12993   0.19957   0.31576   0.00000  Uiso   1.00
O3768  O     0.13857   0.18786   0.27839   0.00000  Uiso   1.00
C3769  C     0.47532   0.47902   0.90718   0.00000  Uiso   1.00
O3770  O     0.49278   0.48623   0.91335   0.00000  Uiso   1.00
O3771  O     0.45757   0.47206   0.90141   0.00000  Uiso   1.00
C3772  C     0.85403   0.89449   0.46959   0.00000  Uiso   1.00
O3773  O     0.84018   0.88016   0.46695   0.00000  Uiso   1.00
O3774  O     0.86730   0.90985   0.47164   0.00000  Uiso   1.00
C3775  C     1.03327   0.50174   0.53400   0.00000  Uiso   1.00
O3776  O     1.04752   0.51427   0.53878   0.00000  Uiso   1.00
O3777  O     1.01821   0.48989   0.52751   0.00000  Uiso   1.00
C3778  C     0.80846   0.52022   0.83535   0.00000  Uiso   1.00
O3779  O     0.79302   0.52984   0.82659   0.00000  Uiso   1.00
O3780  O     0.82340   0.51011   0.84448   0.00000  Uiso   1.00
C3781  C     0.55757   1.14306   0.45853   0.00000  Uiso   1.00
O3782  O     0.54424   1.15320   0.46905   0.00000  Uiso   1.00
O3783  O     0.57178   1.13380   0.44864   0.00000  Uiso   1.00
C3784  C     0.54592   0.36576   0.10986   0.00000  Uiso   1.00
O3785  O     0.56118   0.36580   0.09731   0.00000  Uiso   1.00
O3786  O     0.53030   0.36480   0.12200   0.00000  Uiso   1.00
C3787  C     0.58717   0.05944   1.00030   0.00000  Uiso   1.00
O3788  O     0.59301   0.04438   1.01228   0.00000  Uiso   1.00
O3789  O     0.57937   0.07396   0.98813   0.00000  Uiso   1.00
C3790  C     0.82475   0.48691   0.25583   0.00000  Uiso   1.00
O3791  O     0.84429   0.48451   0.25993   0.00000  Uiso   1.00
O3792  O     0.80572   0.48966   0.25049   0.00000  Uiso   1.00
C3793  C     0.03888   0.79353   0.17977   0.00000  Uiso   1.00
O3794  O     0.03379   0.80241   0.19683   0.00000  Uiso   1.00
O3795  O     0.04263   0.78344   0.16316   0.00000  Uiso   1.00
C3796  C     0.39998   0.93338   0.46015   0.00000  Uiso   1.00
O3797  O     0.41133   0.94329   0.44678   0.00000  Uiso   1.00
O3798  O     0.38827   0.92342   0.47297   0.00000  Uiso   1.00
C3799  C     0.85454   0.51172   0.19484   0.00000  Uiso   1.00
O3800  O     0.84266   0.52264   0.20715   0.00000  Uiso   1.00
O3801  O     0.86766   0.49972   0.18597   0.00000  Uiso   1.00
C3802  C     0.24846   0.92308   0.75999   0.00000  Uiso   1.00
O3803  O     0.25164   0.94273   0.76229   0.00000  Uiso   1.00
O3804  O     0.24502   0.90324   0.75802   0.00000  Uiso   1.00
C3805  C     0.74085   0.33467   1.00065   0.00000  Uiso   1.00
O3806  O     0.72966   0.32443   0.98704   0.00000  Uiso   1.00
O3807  O     0.75256   0.34342   1.01410   0.00000  Uiso   1.00
C3808  C     0.71035   0.09307   0.36436   0.00000  Uiso   1.00
O3809  O     0.69947   0.08501   0.35033   0.00000  Uiso   1.00
O3810  O     0.72129   0.10020   0.37920   0.00000  Uiso   1.00
C3811  C     0.07237   0.94420   0.83691   0.00000  Uiso   1.00
O3812  O     0.05695   0.94800   0.82502   0.00000  Uiso   1.00
O3813  O     0.08771   0.93885   0.84878   0.00000  Uiso   1.00
C3814  C     0.37470   0.18565  -0.12785   0.00000  Uiso   1.00
O3815  O     0.37502   0.19193  -0.10896   0.00000  Uiso   1.00
O3816  O     0.37381   0.18110  -0.14740   0.00000  Uiso   1.00
C3817  C     0.83860   0.89192   0.24734   0.00000  Uiso   1.00
O3818  O     0.82943   0.90033   0.26291   0.00000  Uiso   1.00
O3819  O     0.84823   0.88374   0.23178   0.00000  Uiso   1.00
C3820  C    -0.01559   0.97995  -0.21902   0.00000  Uiso   1.00
O3821  O    -0.00307   0.96527  -0.21431   0.00000  Uiso   1.00
O3822  O    -0.02689   0.99551  -0.22404   0.00000  Uiso   1.00
C3823  C     0.76138   0.94925   0.02672   0.00000  Uiso   1.00
O3824  O     0.76300   0.96935   0.02297   0.00000  Uiso   1.00
O3825  O     0.75778   0.93002   0.03038   0.00000  Uiso   1.00
C3826  C     0.45424   0.89790   0.63171   0.00000  Uiso   1.00
O3827  O     0.44596   0.90339   0.61461   0.00000  Uiso   1.00
O3828  O     0.46071   0.89135   0.64896   0.00000  Uiso   1.00
C3829  C     1.23572   0.52607  -0.11814   0.00000  Uiso   1.00
O3830  O     1.23752   0.50829  -0.10915   0.00000  Uiso   1.00
O3831  O     1.23450   0.54406  -0.12748   0.00000  Uiso   1.00
C3832  C     0.36127   0.31259   0.79391   0.00000  Uiso   1.00
O3833  O     0.36595   0.29683   0.78262   0.00000  Uiso   1.00
O3834  O     0.35464   0.32796   0.80513   0.00000  Uiso   1.00
C3835  C     0.84918   0.00457   0.13397   0.00000  Uiso   1.00
O3836  O     0.83883   0.01099   0.14956   0.00000  Uiso   1.00
O3837  O     0.86020   0.00068   0.11792   0.00000  Uiso   1.00
C3838  C     0.06109   0.79640   0.04250   0.00000  Uiso   1.00
O3839  O     0.07363   0.80970   0.05038   0.00000  Uiso   1.00
O3840  O     0.04829   0.78333   0.03549   0.00000  Uiso   1.00
C3841  C     0.13451   0.35499   0.25206   0.00000  Uiso   1.00
O3842  O     0.13124   0.34665   0.26992   0.00000  Uiso   1.00
O3843  O     0.13681   0.36460   0.23451   0.00000  Uiso   1.00
C3844  C     0.36960   0.46796   0.13394   0.00000  Uiso   1.00
O3845  O     0.38503   0.45700   0.14065   0.00000  Uiso   1.00
O3846  O     0.35477   0.47946   0.12666   0.00000  Uiso   1.00
C3847  C     0.88718   0.38035   0.83972   0.00000  Uiso   1.00
O3848  O     0.88390   0.37619   0.85922   0.00000  Uiso   1.00
O3849  O     0.88834   0.38339   0.82008   0.00000  Uiso   1.00
C3850  C     0.72188   0.30927   0.74561   0.00000  Uiso   1.00
O3851  O     0.72329   0.32607   0.75678   0.00000  Uiso   1.00
O3852  O     0.72105   0.29236   0.73492   0.00000  Uiso   1.00
C3853  C     0.14431   0.27232   1.02120   0.00000  Uiso   1.00
O3854  O     0.15773   0.26510   1.03422   0.00000  Uiso   1.00
O3855  O     0.13059   0.27916   1.00818   0.00000  Uiso   1.00
C3856  C     1.04781   0.29180   1.04906   0.00000  Uiso   1.00
O3857  O     1.03165   0.29294   1.06119   0.00000  Uiso   1.00
O3858  O     1.06469   0.29035   1.03773   0.00000  Uiso   1.00
C3859  C    -0.15943   0.38824   0.92569   0.00000  Uiso   1.00
O3860  O    -0.17855   0.38390   0.92271   0.00000  Uiso   1.00
O3861  O    -0.14042   0.39284   0.93023   0.00000  Uiso   1.00
C3862  C     0.08678   0.45022   0.49468   0.00000  Uiso   1.00
O3863  O     0.09979   0.46018   0.48324   0.00000  Uiso   1.00
O3864  O     0.07409   0.43971   0.50551   0.00000  Uiso   1.00
C3865  C     0.14077   0.59859   0.27138   0.00000  Uiso   1.00
O3866  O     0.15834   0.59733   0.28160   0.00000  Uiso   1.00
O3867  O     0.12314   0.59756   0.26244   0.00000  Uiso   1.00
C3868  C     0.97873   0.40905   0.05889   0.00000  Uiso   1.00
O3869  O     0.97635   0.42873   0.05640   0.00000  Uiso   1.00
O3870  O     0.98139   0.38945   0.06159   0.00000  Uiso   1.00
C3871  C     1.03927   0.33294   0.48375   0.00000  Uiso   1.00
O3872  O     1.04837   0.32008   0.49607   0.00000  Uiso   1.00
O3873  O     1.02911   0.34625   0.47260   0.00000  Uiso   1.00
C3874  C     0.82856   0.56410   0.71979   0.00000  Uiso   1.00
O3875  O     0.84458   0.55933   0.70871   0.00000  Uiso   1.00
O3876  O     0.81256   0.56890   0.73091   0.00000  Uiso   1.00
C3877  C     1.20636   0.13244   0.52946   0.00000  Uiso   1.00
O3878  O     1.20395   0.13119   0.50979   0.00000  Uiso   1.00
O3879  O     1.20796   0.13318   0.54950   0.00000  Uiso   1.00
C3880  C    -0.07518   0.64116   0.67774   0.00000  Uiso   1.00
O3881  O    -0.08796   0.65529   0.68410   0.00000  Uiso   1.00
O3882  O    -0.06180   0.62726   0.67260   0.00000  Uiso   1.00
C3883  C     0.10436   0.38671   0.11875   0.00000  Uiso   1.00
O3884  O     0.11428   0.37961   0.13449   0.00000  Uiso   1.00
O3885  O     0.09356   0.39370   0.10349   0.00000  Uiso   1.00
C3886  C     0.93373   0.53037   0.81792   0.00000  Uiso   1.00
O3887  O     0.92346   0.53167   0.80029   0.00000  Uiso   1.00
O3888  O     0.94309   0.52862   0.83559   0.00000  Uiso   1.00
C3889  C    -0.02886   0.47163   0.79397   0.00000  Uiso   1.00
O3890  O    -0.03025   0.45929   0.80971   0.00000  Uiso   1.00
O3891  O    -0.02694   0.48469   0.77894   0.00000  Uiso   1.00
C3892  C     1.00157   1.10255   0.85649   0.00000  Uiso   1.00
O3893  O     0.99939   1.09971   0.87607   0.00000  Uiso   1.00
O3894  O     1.00435   1.10635   0.83718   0.00000  Uiso   1.00
C3895  C     0.72796   0.42399   0.12482   0.00000  Uiso   1.00
O3896  O     0.74325   0.43647   0.12348   0.00000  Uiso   1.00
O3897  O     0.71291   0.41102   0.12761   0.00000  Uiso   1.00
C3898  C     1.01446   0.53883   0.79461   0.00000  Uiso   1.00
O3899  O     1.02504   0.52864   0.80742   0.00000  Uiso   1.00
O3900  O     1.00426   0.54893   0.78061   0.00000  Uiso   1.00
C3901  C     0.49155   0.98419   0.20339   0.00000  Uiso   1.00
O3902  O     0.49941   1.00081   0.21123   0.00000  Uiso   1.00
O3903  O     0.48377   0.96769   0.19530   0.00000  Uiso   1.00
C3904  C     0.37701   0.75930   0.81718   0.00000  Uiso   1.00
O3905  O     0.36277   0.76296   0.80357   0.00000  Uiso   1.00
O3906  O     0.39175   0.75732   0.83048   0.00000  Uiso   1.00
C3907  C    -0.02431   0.33656   0.30663   0.00000  Uiso   1.00
O3908  O    -0.00445   0.33745   0.30820   0.00000  Uiso   1.00
O3909  O    -0.04391   0.33360   0.30405   0.00000  Uiso   1.00
C3910  C     0.69823   1.12523  -0.01666   0.00000  Uiso   1.00
O3911  O     0.68252   1.13073  -0.02785   0.00000  Uiso   1.00
O3912  O     0.71304   1.11949  -0.00457   0.00000  Uiso   1.00
C3913  C     0.11700   0.56775   0.03425   0.00000  Uiso   1.00
O3914  O     0.10789   0.58157   0.02357   0.00000  Uiso   1.00
O3915  O     0.12626   0.55381   0.04476   0.00000  Uiso   1.00
C3916  C     0.60938   0.56780   1.12041   0.00000  Uiso   1.00
O3917  O     0.62909   0.56542   1.12283   0.00000  Uiso   1.00
O3918  O     0.58961   0.57017   1.11821   0.00000  Uiso   1.00
C3919  C     0.15379   0.87993   0.60377   0.00000  Uiso   1.00
O3920  O     0.16048   0.89449   0.61460   0.00000  Uiso   1.00
O3921  O     0.14655   0.86559   0.59268   0.00000  Uiso   1.00
C3922  C     0.62139   0.08880  -0.54062   0.00000  Uiso   1.00
O3923  O     0.61552   0.08471  -0.52204   0.00000  Uiso   1.00
O3924  O     0.62701   0.09252  -0.55938   0.00000  Uiso   1.00
C3925  C     0.64324  -0.13708   0.25635   0.00000  Uiso   1.00
O3926  O     0.64658  -0.11791   0.25941   0.00000  Uiso   1.00
O3927  O     0.64035  -0.15711   0.25263   0.00000  Uiso   1.00
C3928  C     0.42669   0.57100   0.88535   0.00000  Uiso   1.00
O3929  O     0.41131   0.55805   0.88382   0.00000  Uiso   1.00
O3930  O     0.44265   0.58300   0.88666   0.00000  Uiso   1.00
C3931  C     0.22885   0.08229   0.48662   0.00000  Uiso   1.00
O3932  O     0.20897   0.08538   0.48598   0.00000  Uiso   1.00
O3933  O     0.24840   0.07843   0.48738   0.00000  Uiso   1.00
C3934  C     0.55614   0.90268   0.66956   0.00000  Uiso   1.00
O3935  O     0.55812   0.91042   0.65137   0.00000  Uiso   1.00
O3936  O     0.55465   0.89555   0.68811   0.00000  Uiso   1.00
C3937  C     0.85760   0.61110   0.09738   0.00000  Uiso   1.00
O3938  O     0.85722   0.61929   0.07889   0.00000  Uiso   1.00
O3939  O     0.85624   0.60361   0.11599   0.00000  Uiso   1.00
C3940  C     0.30846   1.11869   0.02662   0.00000  Uiso   1.00
O3941  O     0.28908   1.12363   0.02939   0.00000  Uiso   1.00
O3942  O     0.32728   1.11328   0.02400   0.00000  Uiso   1.00
C3943  C     0.11017   0.60490   0.46099   0.00000  Uiso   1.00
O3944  O     0.11887   0.62200   0.46656   0.00000  Uiso   1.00
O3945  O     0.10057   0.58863   0.45441   0.00000  Uiso   1.00
C3946  C     0.78010   0.78193   0.37911   0.00000  Uiso   1.00
O3947  O     0.78930   0.77211   0.39427   0.00000  Uiso   1.00
O3948  O     0.77268   0.79187   0.36414   0.00000  Uiso   1.00
C3949  C     0.15231   0.61206   0.94730   0.00000  Uiso   1.00
O3950  O     0.16359   0.62222   0.93402   0.00000  Uiso   1.00
O3951  O     0.13984   0.60360   0.96036   0.00000  Uiso   1.00
C3952  C     0.61080   1.06517   0.92173   0.00000  Uiso   1.00
O3953  O     0.61269   1.05324   0.93728   0.00000  Uiso   1.00
O3954  O     0.60887   1.07744   0.90622   0.00000  Uiso   1.00
C3955  C     0.40757   0.84078  -0.04221   0.00000  Uiso   1.00
O3956  O     0.40270   0.84079  -0.02274   0.00000  Uiso   1.00
O3957  O     0.41398   0.83982  -0.06117   0.00000  Uiso   1.00
C3958  C     0.52480   0.10092   1.20981   0.00000  Uiso   1.00
O3959  O     0.52208   0.10366   1.19005   0.00000  Uiso   1.00
O3960  O     0.52796   0.09816   1.22934   0.00000  Uiso   1.00
C3961  C    -0.03646   0.22439   0.69326   0.00000  Uiso   1.00
O3962  O    -0.02370   0.23503   0.68218   0.00000  Uiso   1.00
O3963  O    -0.04861   0.21349   0.70491   0.00000  Uiso   1.00
C3964  C     0.44868   0.94453  -0.04117   0.00000  Uiso   1.00
O3965  O     0.46835   0.94666  -0.03797   0.00000  Uiso   1.00
O3966  O     0.42908   0.94233  -0.04450   0.00000  Uiso   1.00
C3967  C     0.11877   0.20225   0.11266   0.00000  Uiso   1.00
O3968  O     0.12853   0.18491   0.11317   0.00000  Uiso   1.00
O3969  O     0.10948   0.21981   0.11342   0.00000  Uiso   1.00
C3970  C     0.91513   0.69098   0.39128   0.00000  Uiso   1.00
O3971  O     0.90393   0.70426   0.38153   0.00000  Uiso   1.00
O3972  O     0.92584   0.67748   0.40140   0.00000  Uiso   1.00
C3973  C     0.09809   0.86087   1.00586   0.00000  Uiso   1.00
O3974  O     0.08121   0.86913   0.99880   0.00000  Uiso   1.00
O3975  O     0.11560   0.85314   1.01124   0.00000  Uiso   1.00
C3976  C     0.65189   1.03750   0.51996   0.00000  Uiso   1.00
O3977  O     0.65131   1.05659   0.51438   0.00000  Uiso   1.00
O3978  O     0.65318   1.01832   0.52523   0.00000  Uiso   1.00
C3979  C     0.49710   1.07172   0.74280   0.00000  Uiso   1.00
O3980  O     0.51327   1.06457   0.73393   0.00000  Uiso   1.00
O3981  O     0.48149   1.07906   0.75349   0.00000  Uiso   1.00
C3982  C     0.16335   0.63498   1.22905   0.00000  Uiso   1.00
O3983  O     0.15053   0.64974   1.23270   0.00000  Uiso   1.00
O3984  O     0.17634   0.62042   1.22456   0.00000  Uiso   1.00
C3985  C     0.40353   0.45663   0.94558   0.00000  Uiso   1.00
O3986  O     0.40277   0.45944   0.92594   0.00000  Uiso   1.00
O3987  O     0.40388   0.45509   0.96513   0.00000  Uiso   1.00
C3988  C     0.30634   0.08563   0.89717   0.00000  Uiso   1.00
O3989  O     0.32073   0.07718   0.90765   0.00000  Uiso   1.00
O3990  O     0.29181   0.09380   0.88687   0.00000  Uiso   1.00
C3991  C     0.87894   0.39116   0.45327   0.00000  Uiso   1.00
O3992  O     0.86064   0.38828   0.44556   0.00000  Uiso   1.00
O3993  O     0.89752   0.39364   0.45999   0.00000  Uiso   1.00
C3994  C     0.60856   0.05911   0.37166   0.00000  Uiso   1.00
O3995  O     0.61807   0.06253   0.35447   0.00000  Uiso   1.00
O3996  O     0.59999   0.05396   0.38824   0.00000  Uiso   1.00
C3997  C    -0.22034   0.28006   0.78019   0.00000  Uiso   1.00
O3998  O    -0.22347   0.29714   0.76994   0.00000  Uiso   1.00
O3999  O    -0.21875   0.26247   0.79018   0.00000  Uiso   1.00
C4000  C     0.44464   0.79709   0.81297   0.00000  Uiso   1.00
O4001  O     0.43615   0.78836   0.82875   0.00000  Uiso   1.00
O4002  O     0.45348   0.80651   0.79767   0.00000  Uiso   1.00
C4003  C     0.94416   0.58211   0.04229   0.00000  Uiso   1.00
O4004  O     0.96281   0.57474   0.03922   0.00000  Uiso   1.00
O4005  O     0.92607   0.58895   0.04549   0.00000  Uiso   1.00
C4006  C    -0.10295   0.74080   0.69514   0.00000  Uiso   1.00
O4007  O    -0.10576   0.75296   0.67948   0.00000  Uiso   1.00
O4008  O    -0.09904   0.72850   0.71002   0.00000  Uiso   1.00
C4009  C     0.38946   1.12969   0.65123   0.00000  Uiso   1.00
O4010  O     0.40413   1.14229   0.65586   0.00000  Uiso   1.00
O4011  O     0.37427   1.11703   0.64723   0.00000  Uiso   1.00
C4012  C     0.41660   0.24774   0.76943   0.00000  Uiso   1.00
O4013  O     0.41773   0.26726   0.76747   0.00000  Uiso   1.00
O4014  O     0.41647   0.22805   0.77008   0.00000  Uiso   1.00
C4015  C     0.33627  -0.06288   0.66106   0.00000  Uiso   1.00
O4016  O     0.31716  -0.06669   0.65637   0.00000  Uiso   1.00
O4017  O     0.35509  -0.05831   0.66539   0.00000  Uiso   1.00
C4018  C     0.14370   0.54948   0.11077   0.00000  Uiso   1.00
O4019  O     0.14678   0.56727   0.10116   0.00000  Uiso   1.00
O4020  O     0.13922   0.53139   0.11895   0.00000  Uiso   1.00
C4021  C     0.15963   0.52474   0.96565   0.00000  Uiso   1.00
O4022  O     0.16388   0.50903   0.97691   0.00000  Uiso   1.00
O4023  O     0.15548   0.54041   0.95466   0.00000  Uiso   1.00
C4024  C     0.71378   0.18411  -0.05372   0.00000  Uiso   1.00
O4025  O     0.69565   0.17621  -0.05802   0.00000  Uiso   1.00
O4026  O     0.73134   0.19234  -0.04815   0.00000  Uiso   1.00
C4027  C     0.06110  -0.16844   0.43612   0.00000  Uiso   1.00
O4028  O     0.07348  -0.18110   0.44522   0.00000  Uiso   1.00
O4029  O     0.04935  -0.15504   0.42646   0.00000  Uiso   1.00
C4030  C    -0.03130   0.83427   0.76410   0.00000  Uiso   1.00
O4031  O    -0.03724   0.84285   0.74701   0.00000  Uiso   1.00
O4032  O    -0.02471   0.82607   0.78115   0.00000  Uiso   1.00
C4033  C     0.58428   0.92086   0.10814   0.00000  Uiso   1.00
O4034  O     0.60063   0.93091   0.10275   0.00000  Uiso   1.00
O4035  O     0.56797   0.91093   0.11452   0.00000  Uiso   1.00
C4036  C     0.41432   0.36229   0.87067   0.00000  Uiso   1.00
O4037  O     0.40244   0.37366   0.88151   0.00000  Uiso   1.00
O4038  O     0.42661   0.35186   0.85905   0.00000  Uiso   1.00
C4039  C     0.20468   0.49974   0.77667   0.00000  Uiso   1.00
O4040  O     0.22154   0.50930   0.78099   0.00000  Uiso   1.00
O4041  O     0.18779   0.49007   0.77216   0.00000  Uiso   1.00
C4042  C     0.79718  -0.18416   0.53411   0.00000  Uiso   1.00
O4043  O     0.78359  -0.17263   0.52483   0.00000  Uiso   1.00
O4044  O     0.81004  -0.19636   0.54283   0.00000  Uiso   1.00
C4045  C     0.28490   0.88898   0.68812   0.00000  Uiso   1.00
O4046  O     0.28051   0.89168   0.66878   0.00000  Uiso   1.00
O4047  O     0.28900   0.88759   0.70754   0.00000  Uiso   1.00
C4048  C     0.84206   0.94911   0.42155   0.00000  Uiso   1.00
O4049  O     0.85694   0.95950   0.43018   0.00000  Uiso   1.00
O4050  O     0.82745   0.93956   0.41178   0.00000  Uiso   1.00
C4051  C    -0.04003   0.58719   0.57674   0.00000  Uiso   1.00
O4052  O    -0.02721   0.57227   0.57424   0.00000  Uiso   1.00
O4053  O    -0.05296   0.60221   0.58008   0.00000  Uiso   1.00
C4054  C     0.53796   0.19139   0.19742   0.00000  Uiso   1.00
O4055  O     0.52169   0.18074   0.20174   0.00000  Uiso   1.00
O4056  O     0.55453   0.20189   0.19417   0.00000  Uiso   1.00
C4057  C     0.50103  -0.12409   0.71889   0.00000  Uiso   1.00
O4058  O     0.48247  -0.13159   0.72002   0.00000  Uiso   1.00
O4059  O     0.51890  -0.11636   0.71507   0.00000  Uiso   1.00
C4060  C    -0.11892   0.78231  -0.06439   0.00000  Uiso   1.00
O4061  O    -0.13637   0.79166  -0.06880   0.00000  Uiso   1.00
O4062  O    -0.10110   0.77472  -0.05958   0.00000  Uiso   1.00
C4063  C     0.12113   0.09539  -0.02237   0.00000  Uiso   1.00
O4064  O     0.13253   0.10789  -0.03324   0.00000  Uiso   1.00
O4065  O     0.10925   0.08139  -0.01379   0.00000  Uiso   1.00
C4066  C     0.68364   0.90511   0.56604   0.00000  Uiso   1.00
O4067  O     0.68388   0.88559   0.56833   0.00000  Uiso   1.00
O4068  O     0.68440   0.92442   0.56452   0.00000  Uiso   1.00
C4069  C     0.74750   0.81748  -0.09469   0.00000  Uiso   1.00
O4070  O     0.74604   0.83483  -0.10484   0.00000  Uiso   1.00
O4071  O     0.74781   0.79993  -0.08518   0.00000  Uiso   1.00
C4072  C     0.56206  -0.01335   0.32571   0.00000  Uiso   1.00
O4073  O     0.56343  -0.02756   0.31180   0.00000  Uiso   1.00
O4074  O     0.56085   0.00190   0.33949   0.00000  Uiso   1.00
C4075  C     0.70852   0.97715   0.49143   0.00000  Uiso   1.00
O4076  O     0.72050   0.97602   0.47528   0.00000  Uiso   1.00
O4077  O     0.69690   0.97761   0.50782   0.00000  Uiso   1.00
C4078  C     0.78789   0.10369   0.27645   0.00000  Uiso   1.00
O4079  O     0.78235   0.08525   0.27989   0.00000  Uiso   1.00
O4080  O     0.79523   0.12201   0.27300   0.00000  Uiso   1.00
C4081  C     0.12623   0.86955   0.40005   0.00000  Uiso   1.00
O4082  O     0.13374   0.85136   0.40229   0.00000  Uiso   1.00
O4083  O     0.11834   0.88764   0.39862   0.00000  Uiso   1.00
C4084  C     0.94968   0.81927   0.99017   0.00000  Uiso   1.00
O4085  O     0.94208   0.81673   1.00828   0.00000  Uiso   1.00
O4086  O     0.95666   0.82301   0.97163   0.00000  Uiso   1.00
C4087  C     0.23958   0.83247   0.19130   0.00000  Uiso   1.00
O4088  O     0.24853   0.81604   0.19752   0.00000  Uiso   1.00
O4089  O     0.22941   0.84912   0.18538   0.00000  Uiso   1.00
C4090  C     0.19252  -0.00962   0.69149   0.00000  Uiso   1.00
O4091  O     0.18894  -0.02873   0.68634   0.00000  Uiso   1.00
O4092  O     0.19560   0.00967   0.69632   0.00000  Uiso   1.00
C4093  C     0.07477  -0.06451   0.95889   0.00000  Uiso   1.00
O4094  O     0.07405  -0.04688   0.94997   0.00000  Uiso   1.00
O4095  O     0.07548  -0.08188   0.96887   0.00000  Uiso   1.00
C4096  C     0.89656   1.07596   1.18170   0.00000  Uiso   1.00
O4097  O     0.90929   1.07501   1.16611   0.00000  Uiso   1.00
O4098  O     0.88427   1.07830   1.19713   0.00000  Uiso   1.00
C4099  C    -0.02465   0.46332   0.20631   0.00000  Uiso   1.00
O4100  O    -0.03480   0.45049   0.19449   0.00000  Uiso   1.00
O4101  O    -0.01495   0.47651   0.21810   0.00000  Uiso   1.00
C4102  C     0.29592   0.21652   0.34478   0.00000  Uiso   1.00
O4103  O     0.29420   0.23546   0.34816   0.00000  Uiso   1.00
O4104  O     0.29795   0.19692   0.34136   0.00000  Uiso   1.00
C4105  C     0.48718   0.39184   1.13403   0.00000  Uiso   1.00
O4106  O     0.49697   0.40925   1.13874   0.00000  Uiso   1.00
O4107  O     0.47779   0.37388   1.13132   0.00000  Uiso   1.00
C4108  C     0.04016   0.86650   0.56527   0.00000  Uiso   1.00
O4109  O     0.05837   0.86350   0.57290   0.00000  Uiso   1.00
O4110  O     0.02194   0.86933   0.55750   0.00000  Uiso   1.00
C4111  C     0.85072   0.81664   0.25596   0.00000  Uiso   1.00
O4112  O     0.85956   0.80743   0.24031   0.00000  Uiso   1.00
O4113  O     0.84119   0.82611   0.27070   0.00000  Uiso   1.00
C4114  C     0.00519   0.27874   0.73299   0.00000  Uiso   1.00
O4115  O    -0.00873   0.29297   0.73064   0.00000  Uiso   1.00
O4116  O     0.01986   0.26603   0.73660   0.00000  Uiso   1.00
C4117  C     0.82217   0.66364   0.22038   0.00000  Uiso   1.00
O4118  O     0.80437   0.65470   0.21703   0.00000  Uiso   1.00
O4119  O     0.83946   0.67400   0.22182   0.00000  Uiso   1.00
C4120  C     0.51639   0.32468   1.05902   0.00000  Uiso   1.00
O4121  O     0.51388   0.32755   1.03971   0.00000  Uiso   1.00
O4122  O     0.51752   0.32203   1.07890   0.00000  Uiso   1.00
C4123  C     0.59350   0.76229   0.17258   0.00000  Uiso   1.00
O4124  O     0.58132   0.74770   0.16616   0.00000  Uiso   1.00
O4125  O     0.60605   0.77725   0.17708   0.00000  Uiso   1.00
C4126  C     0.74625   0.87342   0.60339   0.00000  Uiso   1.00
O4127  O     0.75851   0.86465   0.59043   0.00000  Uiso   1.00
O4128  O     0.73384   0.88270   0.61602   0.00000  Uiso   1.00
C4129  C     0.80343   0.81806   0.70571   0.00000  Uiso   1.00
O4130  O     0.78714   0.81535   0.71643   0.00000  Uiso   1.00
O4131  O     0.81971   0.82049   0.69432   0.00000  Uiso   1.00
C4132  C     0.79341   0.48218   0.93041   0.00000  Uiso   1.00
O4133  O     0.80221   0.47169   0.91652   0.00000  Uiso   1.00
O4134  O     0.78363   0.49169   0.94513   0.00000  Uiso   1.00
C4135  C     0.70524   0.11360   0.17050   0.00000  Uiso   1.00
O4136  O     0.69668   0.11850   0.15329   0.00000  Uiso   1.00
O4137  O     0.71352   0.10904   0.18839   0.00000  Uiso   1.00
C4138  C     0.79009   0.85537   0.75538   0.00000  Uiso   1.00
O4139  O     0.80179   0.85106   0.77125   0.00000  Uiso   1.00
O4140  O     0.77783   0.86112   0.74063   0.00000  Uiso   1.00
C4141  C     0.43271   0.79053   0.95616   0.00000  Uiso   1.00
O4142  O     0.42077   0.78822   0.97188   0.00000  Uiso   1.00
O4143  O     0.44417   0.79289   0.94010   0.00000  Uiso   1.00
C4144  C     0.27230   1.19027   0.86279   0.00000  Uiso   1.00
O4145  O     0.25817   1.20248   0.86929   0.00000  Uiso   1.00
O4146  O     0.28592   1.17806   0.85506   0.00000  Uiso   1.00
C4147  C     0.90062   0.55307   0.58188   0.00000  Uiso   1.00
O4148  O     0.90884   0.53488   0.58157   0.00000  Uiso   1.00
O4149  O     0.89329   0.57150   0.58172   0.00000  Uiso   1.00
C4150  C     0.03087   0.55153   0.63013   0.00000  Uiso   1.00
O4151  O     0.02545   0.56342   0.61509   0.00000  Uiso   1.00
O4152  O     0.03562   0.53896   0.64505   0.00000  Uiso   1.00
C4153  C     0.31407   0.16216   0.45304   0.00000  Uiso   1.00
O4154  O     0.29986   0.15792   0.43935   0.00000  Uiso   1.00
O4155  O     0.32787   0.16735   0.46682   0.00000  Uiso   1.00
C4156  C     0.26689   0.00309   1.06214   0.00000  Uiso   1.00
O4157  O     0.24776   0.00335   1.06845   0.00000  Uiso   1.00
O4158  O     0.28530   0.00250   1.05474   0.00000  Uiso   1.00
C4159  C     0.36714  -0.12143   0.68963   0.00000  Uiso   1.00
O4160  O     0.37831  -0.13029   0.70309   0.00000  Uiso   1.00
O4161  O     0.35646  -0.11227   0.67562   0.00000  Uiso   1.00
C4162  C     0.12379   0.81038   0.37085   0.00000  Uiso   1.00
O4163  O     0.10849   0.81492   0.38324   0.00000  Uiso   1.00
O4164  O     0.13897   0.80618   0.35912   0.00000  Uiso   1.00
C4165  C     0.22705   0.86148  -0.07379   0.00000  Uiso   1.00
O4166  O     0.21834   0.85398  -0.05745   0.00000  Uiso   1.00
O4167  O     0.23782   0.86867  -0.08906   0.00000  Uiso   1.00
C4168  C     0.39874   1.13914   0.28876   0.00000  Uiso   1.00
O4169  O     0.40980   1.12709   0.27765   0.00000  Uiso   1.00
O4170  O     0.38867   1.15193   0.30000   0.00000  Uiso   1.00
C4171  C     0.65832   1.13019   0.22516   0.00000  Uiso   1.00
O4172  O     0.65047   1.13099   0.24337   0.00000  Uiso   1.00
O4173  O     0.66749   1.12833   0.20715   0.00000  Uiso   1.00
C4174  C     0.32743   0.97327   0.51745   0.00000  Uiso   1.00
O4175  O     0.32775   0.96104   0.50194   0.00000  Uiso   1.00
O4176  O     0.32834   0.98568   0.53291   0.00000  Uiso   1.00
C4177  C     0.36585   0.55059   0.00371   0.00000  Uiso   1.00
O4178  O     0.35539   0.53476   0.00971   0.00000  Uiso   1.00
O4179  O     0.37587   0.56702  -0.00181   0.00000  Uiso   1.00
C4180  C     0.17746   0.65335   0.78043   0.00000  Uiso   1.00
O4181  O     0.18670   0.67109   0.77791   0.00000  Uiso   1.00
O4182  O     0.16827   0.63522   0.78429   0.00000  Uiso   1.00
C4183  C     0.46949   0.79861   0.12580   0.00000  Uiso   1.00
O4184  O     0.46261   0.77980   0.12354   0.00000  Uiso   1.00
O4185  O     0.47619   0.81733   0.12827   0.00000  Uiso   1.00
C4186  C     0.15634   0.65634   0.68979   0.00000  Uiso   1.00
O4187  O     0.17228   0.66018   0.67855   0.00000  Uiso   1.00
O4188  O     0.14024   0.65119   0.70065   0.00000  Uiso   1.00
C4189  C     0.19446   1.15940   0.66154   0.00000  Uiso   1.00
O4190  O     0.18523   1.17568   0.65559   0.00000  Uiso   1.00
O4191  O     0.20203   1.14249   0.66752   0.00000  Uiso   1.00
C4192  C     0.56488  -0.15450   0.15415   0.00000  Uiso   1.00
O4193  O     0.54472  -0.15212   0.15518   0.00000  Uiso   1.00
O4194  O     0.58456  -0.15711   0.15184   0.00000  Uiso   1.00
C4195  C     0.92462   0.65573   0.03063   0.00000  Uiso   1.00
O4196  O     0.92720   0.66192   0.01188   0.00000  Uiso   1.00
O4197  O     0.92146   0.64912   0.04910   0.00000  Uiso   1.00
C4198  C     0.35049   0.41799   1.00691   0.00000  Uiso   1.00
O4199  O     0.35744   0.43614   1.00564   0.00000  Uiso   1.00
O4200  O     0.34369   0.39914   1.00840   0.00000  Uiso   1.00
C4201  C     0.66870   0.14309   0.59826   0.00000  Uiso   1.00
O4202  O     0.66109   0.15687   0.58623   0.00000  Uiso   1.00
O4203  O     0.67601   0.12915   0.61059   0.00000  Uiso   1.00
C4204  C     0.29322   0.46668   0.90101   0.00000  Uiso   1.00
O4205  O     0.27475   0.47161   0.90633   0.00000  Uiso   1.00
O4206  O     0.31169   0.46274   0.89489   0.00000  Uiso   1.00
C4207  C     1.06539   0.80578   0.98725   0.00000  Uiso   1.00
O4208  O     1.05506   0.82292   0.98398   0.00000  Uiso   1.00
O4209  O     1.07513   0.78880   0.99021   0.00000  Uiso   1.00
C4210  C     0.95434   0.66131   0.29326   0.00000  Uiso   1.00
O4211  O     0.95995   0.64986   0.27781   0.00000  Uiso   1.00
O4212  O     0.94758   0.67268   0.30803   0.00000  Uiso   1.00
C4213  C     1.16672   0.75152   0.13259   0.00000  Uiso   1.00
O4214  O     1.18501   0.74999   0.14009   0.00000  Uiso   1.00
O4215  O     1.14807   0.75273   0.12587   0.00000  Uiso   1.00
C4216  C     0.19588   0.25577   0.48573   0.00000  Uiso   1.00
O4217  O     0.19566   0.23917   0.49708   0.00000  Uiso   1.00
O4218  O     0.19599   0.27279   0.47518   0.00000  Uiso   1.00
C4219  C     0.90109   0.47498   0.43846   0.00000  Uiso   1.00
O4220  O     0.90693   0.45991   0.45012   0.00000  Uiso   1.00
O4221  O     0.89432   0.49039   0.42782   0.00000  Uiso   1.00
C4222  C     0.88630   0.20325   0.72019   0.00000  Uiso   1.00
O4223  O     0.89147   0.18394   0.72152   0.00000  Uiso   1.00
O4224  O     0.88041   0.22238   0.71926   0.00000  Uiso   1.00
C4225  C     0.81199   0.16123   0.34965   0.00000  Uiso   1.00
O4226  O     0.81039   0.17453   0.33458   0.00000  Uiso   1.00
O4227  O     0.81322   0.14725   0.36420   0.00000  Uiso   1.00
C4228  C     0.70528   0.01709   0.14684   0.00000  Uiso   1.00
O4229  O     0.70685   0.00058   0.13604   0.00000  Uiso   1.00
O4230  O     0.70355   0.03422   0.15691   0.00000  Uiso   1.00
C4231  C     0.65006   0.19213   0.02691   0.00000  Uiso   1.00
O4232  O     0.64735   0.21127   0.02169   0.00000  Uiso   1.00
O4233  O     0.65378   0.17309   0.03212   0.00000  Uiso   1.00
C4234  C     0.33609   0.27269   1.23506   0.00000  Uiso   1.00
O4235  O     0.34988   0.27741   1.22166   0.00000  Uiso   1.00
O4236  O     0.32127   0.26791   1.24749   0.00000  Uiso   1.00
C4237  C    -0.22368   0.39568   0.15036   0.00000  Uiso   1.00
O4238  O    -0.23917   0.38551   0.15706   0.00000  Uiso   1.00
O4239  O    -0.20835   0.40666   0.14263   0.00000  Uiso   1.00
C4240  C     0.27996   0.40303   0.03630   0.00000  Uiso   1.00
O4241  O     0.29264   0.40517   0.02100   0.00000  Uiso   1.00
O4242  O     0.26752   0.40199   0.05184   0.00000  Uiso   1.00
C4243  C     0.74899   0.41571   0.79439   0.00000  Uiso   1.00
O4244  O     0.74156   0.43450   0.79174   0.00000  Uiso   1.00
O4245  O     0.75688   0.39749   0.79809   0.00000  Uiso   1.00
C4246  C     0.53617   0.08622  -0.10760   0.00000  Uiso   1.00
O4247  O     0.51775   0.08495  -0.11628   0.00000  Uiso   1.00
O4248  O     0.55373   0.08662  -0.09789   0.00000  Uiso   1.00
C4249  C     0.66968   0.73193   0.05013   0.00000  Uiso   1.00
O4250  O     0.68831   0.72411   0.05267   0.00000  Uiso   1.00
O4251  O     0.65170   0.73918   0.04562   0.00000  Uiso   1.00
C4252  C    -0.10676   0.62235   0.46249   0.00000  Uiso   1.00
O4253  O    -0.08717   0.62418   0.45860   0.00000  Uiso   1.00
O4254  O    -0.12611   0.62068   0.46759   0.00000  Uiso   1.00
C4255  C     0.57313   0.96497   0.22673   0.00000  Uiso   1.00
O4256  O     0.57172   0.98418   0.22123   0.00000  Uiso   1.00
O4257  O     0.57474   0.94583   0.23153   0.00000  Uiso   1.00
C4258  C     0.93581   0.07662   0.84723   0.00000  Uiso   1.00
O4259  O     0.95092   0.06594   0.83921   0.00000  Uiso   1.00
O4260  O     0.92065   0.08734   0.85346   0.00000  Uiso   1.00
C4261  C     0.92396   0.48264   0.25558   0.00000  Uiso   1.00
O4262  O     0.93951   0.47111   0.25261   0.00000  Uiso   1.00
O4263  O     0.90758   0.49393   0.25860   0.00000  Uiso   1.00
C4264  C     0.75698   1.10951   0.93527   0.00000  Uiso   1.00
O4265  O     0.76977   1.11784   0.92177   0.00000  Uiso   1.00
O4266  O     0.74402   1.10020   0.94735   0.00000  Uiso   1.00
C4267  C     0.18178   0.38410   0.72441   0.00000  Uiso   1.00
O4268  O     0.17698   0.37172   0.73951   0.00000  Uiso   1.00
O4269  O     0.18559   0.39526   0.70905   0.00000  Uiso   1.00
C4270  C     0.40102   0.71105   0.16928   0.00000  Uiso   1.00
O4271  O     0.40668   0.72953   0.17325   0.00000  Uiso   1.00
O4272  O     0.39473   0.69325   0.16469   0.00000  Uiso   1.00
C4273  C     0.38501   0.92496   0.53444   0.00000  Uiso   1.00
O4274  O     0.39894   0.92803   0.52085   0.00000  Uiso   1.00
O4275  O     0.37074   0.92321   0.54869   0.00000  Uiso   1.00
C4276  C     1.00382   0.83995   0.26206   0.00000  Uiso   1.00
O4277  O     0.98511   0.84031   0.25512   0.00000  Uiso   1.00
O4278  O     1.02264   0.83890   0.26880   0.00000  Uiso   1.00
C4279  C    -0.14308   0.35369   0.25605   0.00000  Uiso   1.00
O4280  O    -0.16246   0.35273   0.25145   0.00000  Uiso   1.00
O4281  O    -0.12392   0.35478   0.26167   0.00000  Uiso   1.00
C4282  C     0.32303   0.83322   0.16916   0.00000  Uiso   1.00
O4283  O     0.32684   0.83994   0.18765   0.00000  Uiso   1.00
O4284  O     0.32077   0.82813   0.15030   0.00000  Uiso   1.00
C4285  C    -0.01800   0.11020  -0.05831   0.00000  Uiso   1.00
O4286  O    -0.01590   0.12748  -0.04878   0.00000  Uiso   1.00
O4287  O    -0.01883   0.09261  -0.06677   0.00000  Uiso   1.00
C4288  C     0.41401   0.29456   1.18446   0.00000  Uiso   1.00
O4289  O     0.40634   0.30980   1.19478   0.00000  Uiso   1.00
O4290  O     0.42151   0.27872   1.17506   0.00000  Uiso   1.00
C4291  C     0.35858   0.08035   0.29489   0.00000  Uiso   1.00
O4292  O     0.34542   0.06954   0.30480   0.00000  Uiso   1.00
O4293  O     0.37121   0.09256   0.28555   0.00000  Uiso   1.00
C4294  C     0.32502   1.16840   0.26030   0.00000  Uiso   1.00
O4295  O     0.31421   1.16287   0.24448   0.00000  Uiso   1.00
O4296  O     0.33631   1.17351   0.27596   0.00000  Uiso   1.00
C4297  C    -0.16835   0.92021   0.33211   0.00000  Uiso   1.00
O4298  O    -0.18705   0.91581   0.32671   0.00000  Uiso   1.00
O4299  O    -0.14966   0.92440   0.33734   0.00000  Uiso   1.00
C4300  C    -0.34342   0.94872   0.15006   0.00000  Uiso   1.00
O4301  O    -0.32907   0.94934   0.13643   0.00000  Uiso   1.00
O4302  O    -0.35710   0.94809   0.16441   0.00000  Uiso   1.00
C4303  C     0.85269   0.73629   0.44840   0.00000  Uiso   1.00
O4304  O     0.84381   0.73374   0.46605   0.00000  Uiso   1.00
O4305  O     0.86172   0.73883   0.43091   0.00000  Uiso   1.00
C4306  C     0.30726  -0.12216   1.11499   0.00000  Uiso   1.00
O4307  O     0.32271  -0.10969   1.11064   0.00000  Uiso   1.00
O4308  O     0.29185  -0.13400   1.11863   0.00000  Uiso   1.00
C4309  C     0.34730   0.33382   1.19258   0.00000  Uiso   1.00
O4310  O     0.33505   0.33873   1.20766   0.00000  Uiso   1.00
O4311  O     0.35992   0.33020   1.17752   0.00000  Uiso   1.00
C4312  C     1.21102   0.57256   0.22861   0.00000  Uiso   1.00
O4313  O     1.20644   0.56078   0.21333   0.00000  Uiso   1.00
O4314  O     1.21658   0.58456   0.24361   0.00000  Uiso   1.00
C4315  C     0.42795   0.93806   0.26473   0.00000  Uiso   1.00
O4316  O     0.42916   0.95697   0.27098   0.00000  Uiso   1.00
O4317  O     0.42832   0.91906   0.25857   0.00000  Uiso   1.00
C4318  C     1.03941   0.11248   0.41479   0.00000  Uiso   1.00
O4319  O     1.03167   0.09988   0.40144   0.00000  Uiso   1.00
O4320  O     1.04792   0.12496   0.42799   0.00000  Uiso   1.00
C4321  C    -0.02597   0.89220   0.15208   0.00000  Uiso   1.00
O4322  O    -0.01604   0.87530   0.15428   0.00000  Uiso   1.00
O4323  O    -0.03470   0.90994   0.14984   0.00000  Uiso   1.00
C4324  C     0.48014   0.20401   0.80235   0.00000  Uiso   1.00
O4325  O     0.47752   0.22356   0.80480   0.00000  Uiso   1.00
O4326  O     0.48301   0.18443   0.80028   0.00000  Uiso   1.00
C4327  C     0.37982  -0.01570   0.17448   0.00000  Uiso   1.00
O4328  O     0.39503  -0.02856   0.17683   0.00000  Uiso   1.00
O4329  O     0.36519  -0.00262   0.17219   0.00000  Uiso   1.00
C4330  C     0.28413   0.37669   0.12685   0.00000  Uiso   1.00
O4331  O     0.27663   0.38071   0.14462   0.00000  Uiso   1.00
O4332  O     0.29172   0.37361   0.10875   0.00000  Uiso   1.00
C4333  C     0.16386   0.49535   0.81351   0.00000  Uiso   1.00
O4334  O     0.15919   0.51518   0.81283   0.00000  Uiso   1.00
O4335  O     0.16716   0.47590   0.81484   0.00000  Uiso   1.00
C4336  C     0.55538   0.43909   1.11654   0.00000  Uiso   1.00
O4337  O     0.57491   0.43893   1.11953   0.00000  Uiso   1.00
O4338  O     0.53592   0.44011   1.11464   0.00000  Uiso   1.00
C4339  C     0.03122   0.86365   0.06821   0.00000  Uiso   1.00
O4340  O     0.04097   0.85250   0.05563   0.00000  Uiso   1.00
O4341  O     0.02329   0.87491   0.08189   0.00000  Uiso   1.00
C4342  C     0.62398   0.47509  -0.12570   0.00000  Uiso   1.00
O4343  O     0.61104   0.46113  -0.13241   0.00000  Uiso   1.00
O4344  O     0.63600   0.48878  -0.11825   0.00000  Uiso   1.00
C4345  C     0.25586   0.76038   0.71887   0.00000  Uiso   1.00
O4346  O     0.27145   0.76790   0.72868   0.00000  Uiso   1.00
O4347  O     0.24033   0.75211   0.70928   0.00000  Uiso   1.00
C4348  C     0.73743   0.04755   0.07436   0.00000  Uiso   1.00
O4349  O     0.73394   0.03523   0.05923   0.00000  Uiso   1.00
O4350  O     0.74088   0.05987   0.08936   0.00000  Uiso   1.00
C4351  C     0.29249  -0.08165   0.56908   0.00000  Uiso   1.00
O4352  O     0.27985  -0.06903   0.56039   0.00000  Uiso   1.00
O4353  O     0.30508  -0.09433   0.57776   0.00000  Uiso   1.00
C4354  C     0.30783   0.25439   0.15755   0.00000  Uiso   1.00
O4355  O     0.30236   0.23904   0.16886   0.00000  Uiso   1.00
O4356  O     0.31309   0.26808   0.14461   0.00000  Uiso   1.00
C4357  C     1.09986   0.58238   0.40134   0.00000  Uiso   1.00
O4358  O     1.08439   0.58962   0.39191   0.00000  Uiso   1.00
O4359  O     1.11512   0.57426   0.41106   0.00000  Uiso   1.00
C4360  C     0.48111  -0.02848   0.43642   0.00000  Uiso   1.00
O4361  O     0.50057  -0.02447   0.43390   0.00000  Uiso   1.00
O4362  O     0.46204  -0.03272   0.44061   0.00000  Uiso   1.00
C4363  C     0.92140   1.15537   0.42621   0.00000  Uiso   1.00
O4364  O     0.91795   1.13986   0.43809   0.00000  Uiso   1.00
O4365  O     0.92430   1.17063   0.41385   0.00000  Uiso   1.00
C4366  C     0.45437   0.92133   0.82730   0.00000  Uiso   1.00
O4367  O     0.46729   0.91750   0.84181   0.00000  Uiso   1.00
O4368  O     0.44147   0.92589   0.81295   0.00000  Uiso   1.00
C4369  C     0.19372   0.77859   0.60191   0.00000  Uiso   1.00
O4370  O     0.18577   0.76363   0.61201   0.00000  Uiso   1.00
O4371  O     0.20243   0.79322   0.59183   0.00000  Uiso   1.00
C4372  C     0.33597   0.32224   0.95064   0.00000  Uiso   1.00
O4373  O     0.35363   0.32225   0.95974   0.00000  Uiso   1.00
O4374  O     0.31909   0.32482   0.94071   0.00000  Uiso   1.00
C4375  C     0.73897   0.73244   0.73434   0.00000  Uiso   1.00
O4376  O     0.74229   0.71384   0.74073   0.00000  Uiso   1.00
O4377  O     0.73532   0.75161   0.72843   0.00000  Uiso   1.00
C4378  C     0.20798   0.78573   0.66980   0.00000  Uiso   1.00
O4379  O     0.20579   0.79233   0.68839   0.00000  Uiso   1.00
O4380  O     0.21142   0.77905   0.65145   0.00000  Uiso   1.00
C4381  C     0.36630   0.19324   0.62946   0.00000  Uiso   1.00
O4382  O     0.34975   0.19407   0.64084   0.00000  Uiso   1.00
O4383  O     0.38325   0.19223   0.61842   0.00000  Uiso   1.00
C4384  C     0.66134   0.37454   0.96464   0.00000  Uiso   1.00
O4385  O     0.66408   0.37984   0.94563   0.00000  Uiso   1.00
O4386  O     0.65877   0.37012   0.98413   0.00000  Uiso   1.00
C4387  C     0.56109   0.20806  -0.15522   0.00000  Uiso   1.00
O4388  O     0.56862   0.21116  -0.17348   0.00000  Uiso   1.00
O4389  O     0.55334   0.20618  -0.13730   0.00000  Uiso   1.00
C4390  C     0.39096   0.96770   0.37387   0.00000  Uiso   1.00
O4391  O     0.37497   0.97147   0.38553   0.00000  Uiso   1.00
O4392  O     0.40681   0.96317   0.36222   0.00000  Uiso   1.00
C4393  C    -0.04941  -0.03106   0.46802   0.00000  Uiso   1.00
O4394  O    -0.06715  -0.02975   0.47776   0.00000  Uiso   1.00
O4395  O    -0.03178  -0.03369   0.45869   0.00000  Uiso   1.00
C4396  C    -0.04484   0.85764   0.58596   0.00000  Uiso   1.00
O4397  O    -0.03470   0.84170   0.58037   0.00000  Uiso   1.00
O4398  O    -0.05578   0.87368   0.59097   0.00000  Uiso   1.00
C4399  C     1.03072   0.00366   0.26180   0.00000  Uiso   1.00
O4400  O     1.03649  -0.01160   0.27288   0.00000  Uiso   1.00
O4401  O     1.02392   0.01750   0.24983   0.00000  Uiso   1.00
C4402  C     0.77613   0.57434   0.79660   0.00000  Uiso   1.00
O4403  O     0.76883   0.57722   0.81470   0.00000  Uiso   1.00
O4404  O     0.78368   0.57096   0.77917   0.00000  Uiso   1.00
C4405  C     0.49551   0.85952   0.77491   0.00000  Uiso   1.00
O4406  O     0.50586   0.87672   0.77550   0.00000  Uiso   1.00
O4407  O     0.48515   0.84242   0.77411   0.00000  Uiso   1.00
C4408  C     1.28674   0.64823   0.15955   0.00000  Uiso   1.00
O4409  O     1.26856   0.64626   0.16758   0.00000  Uiso   1.00
O4410  O     1.30552   0.65026   0.15277   0.00000  Uiso   1.00
C4411  C     0.30079   0.20508   0.65354   0.00000  Uiso   1.00
O4412  O     0.28617   0.20318   0.63999   0.00000  Uiso   1.00
O4413  O     0.31522   0.20787   0.66710   0.00000  Uiso   1.00
C4414  C     0.54457   0.07631   0.37700   0.00000  Uiso   1.00
O4415  O     0.54768   0.08063   0.35793   0.00000  Uiso   1.00
O4416  O     0.53969   0.07120   0.39593   0.00000  Uiso   1.00
C4417  C     0.67659   0.42608   0.90626   0.00000  Uiso   1.00
O4418  O     0.68689   0.42616   0.92332   0.00000  Uiso   1.00
O4419  O     0.66581   0.42569   0.88945   0.00000  Uiso   1.00
C4420  C     0.79175   0.29158   0.19436   0.00000  Uiso   1.00
O4421  O     0.78253   0.30840   0.19792   0.00000  Uiso   1.00
O4422  O     0.80110   0.27455   0.19080   0.00000  Uiso   1.00
C4423  C     0.85907   0.33059   0.46923   0.00000  Uiso   1.00
O4424  O     0.84681   0.34511   0.47582   0.00000  Uiso   1.00
O4425  O     0.87234   0.31655   0.46409   0.00000  Uiso   1.00
C4426  C     0.45403   0.19345   0.74702   0.00000  Uiso   1.00
O4427  O     0.44734   0.17492   0.74784   0.00000  Uiso   1.00
O4428  O     0.46248   0.21170   0.74598   0.00000  Uiso   1.00
C4429  C     0.73987   0.84720   0.40102   0.00000  Uiso   1.00
O4430  O     0.72991   0.86388   0.40338   0.00000  Uiso   1.00
O4431  O     0.74968   0.83055   0.39653   0.00000  Uiso   1.00
C4432  C     0.82839   0.47102   0.05733   0.00000  Uiso   1.00
O4433  O     0.84313   0.45793   0.06039   0.00000  Uiso   1.00
O4434  O     0.81407   0.48434   0.05471   0.00000  Uiso   1.00
C4435  C     0.30882   0.20698   0.82516   0.00000  Uiso   1.00
O4436  O     0.31617   0.19224   0.81497   0.00000  Uiso   1.00
O4437  O     0.30167   0.22244   0.83473   0.00000  Uiso   1.00
C4438  C     0.36435   0.00601   0.64728   0.00000  Uiso   1.00
O4439  O     0.36239   0.00061   0.66671   0.00000  Uiso   1.00
O4440  O     0.36576   0.01326   0.62789   0.00000  Uiso   1.00
C4441  C    -0.15297   0.53024   0.93138   0.00000  Uiso   1.00
O4442  O    -0.14449   0.54774   0.92692   0.00000  Uiso   1.00
O4443  O    -0.16124   0.51264   0.93560   0.00000  Uiso   1.00
C4444  C     0.64418   0.32513   0.81544   0.00000  Uiso   1.00
O4445  O     0.64500   0.33069   0.79625   0.00000  Uiso   1.00
O4446  O     0.64264   0.31942   0.83421   0.00000  Uiso   1.00
C4447  C     0.97814   0.01134  -0.42917   0.00000  Uiso   1.00
O4448  O     0.99212  -0.00043  -0.43756   0.00000  Uiso   1.00
O4449  O     0.96391   0.02196  -0.42011   0.00000  Uiso   1.00
C4450  C     0.72648   0.55579   1.04743   0.00000  Uiso   1.00
O4451  O     0.71223   0.54737   1.05835   0.00000  Uiso   1.00
O4452  O     0.73996   0.56385   1.03524   0.00000  Uiso   1.00
C4453  C     0.76489   0.27406   0.85878   0.00000  Uiso   1.00
O4454  O     0.76083   0.25658   0.86731   0.00000  Uiso   1.00
O4455  O     0.76767   0.29187   0.85020   0.00000  Uiso   1.00
C4456  C     0.88019   0.43499   0.68031   0.00000  Uiso   1.00
O4457  O     0.86766   0.44282   0.66733   0.00000  Uiso   1.00
O4458  O     0.89502   0.42863   0.69214   0.00000  Uiso   1.00
C4459  C     0.55277   0.39391   0.04110   0.00000  Uiso   1.00
O4460  O     0.53689   0.40323   0.04873   0.00000  Uiso   1.00
O4461  O     0.56837   0.38425   0.03327   0.00000  Uiso   1.00
C4462  C    -0.09079   0.17758   0.25300   0.00000  Uiso   1.00
O4463  O    -0.08994   0.16795   0.23545   0.00000  Uiso   1.00
O4464  O    -0.09068   0.18553   0.27102   0.00000  Uiso   1.00
C4465  C     0.86725   0.86127   1.11884   0.00000  Uiso   1.00
O4466  O     0.88070   0.86181   1.10395   0.00000  Uiso   1.00
O4467  O     0.85335   0.86263   1.13293   0.00000  Uiso   1.00
C4468  C     0.71168   1.17404   0.48246   0.00000  Uiso   1.00
O4469  O     0.70944   1.19228   0.47541   0.00000  Uiso   1.00
O4470  O     0.71491   1.15607   0.49068   0.00000  Uiso   1.00
C4471  C     0.09774   0.77711   0.51495   0.00000  Uiso   1.00
O4472  O     0.08020   0.77945   0.50472   0.00000  Uiso   1.00
O4473  O     0.11511   0.77471   0.52470   0.00000  Uiso   1.00
C4474  C     0.34296   0.00007   0.86495   0.00000  Uiso   1.00
O4475  O     0.34441  -0.01200   0.84906   0.00000  Uiso   1.00
O4476  O     0.34156   0.01236   0.88059   0.00000  Uiso   1.00
C4477  C     1.07991   0.22189   0.66969   0.00000  Uiso   1.00
O4478  O     1.06456   0.21122   0.66250   0.00000  Uiso   1.00
O4479  O     1.09539   0.23230   0.67667   0.00000  Uiso   1.00
C4480  C     0.28554   0.34368   0.79760   0.00000  Uiso   1.00
O4481  O     0.30297   0.35150   0.79131   0.00000  Uiso   1.00
O4482  O     0.26824   0.33624   0.80402   0.00000  Uiso   1.00
C4483  C     0.16470   0.53777   0.71635   0.00000  Uiso   1.00
O4484  O     0.14756   0.52782   0.71787   0.00000  Uiso   1.00
O4485  O     0.18177   0.54826   0.71512   0.00000  Uiso   1.00
C4486  C     0.23304   0.34513   0.71065   0.00000  Uiso   1.00
O4487  O     0.22478   0.35924   0.69912   0.00000  Uiso   1.00
O4488  O     0.24257   0.33152   0.72159   0.00000  Uiso   1.00
C4489  C     1.09658   0.32175   0.61682   0.00000  Uiso   1.00
O4490  O     1.11267   0.31797   0.62766   0.00000  Uiso   1.00
O4491  O     1.07995   0.32521   0.60613   0.00000  Uiso   1.00
C4492  C     0.16260   0.18983   0.36621   0.00000  Uiso   1.00
O4493  O     0.17233   0.18941   0.34855   0.00000  Uiso   1.00
O4494  O     0.15179   0.19070   0.38317   0.00000  Uiso   1.00
C4495  C     0.87134   0.86051   0.79752   0.00000  Uiso   1.00
O4496  O     0.88072   0.85893   0.81492   0.00000  Uiso   1.00
O4497  O     0.86332   0.86381   0.77976   0.00000  Uiso   1.00
C4498  C     0.79052   0.83399   0.47316   0.00000  Uiso   1.00
O4499  O     0.77983   0.81724   0.47147   0.00000  Uiso   1.00
O4500  O     0.80120   0.85100   0.47528   0.00000  Uiso   1.00
C4501  C     0.03876   0.30705   0.22198   0.00000  Uiso   1.00
O4502  O     0.03821   0.31431   0.20314   0.00000  Uiso   1.00
O4503  O     0.03962   0.29885   0.24015   0.00000  Uiso   1.00
C4504  C     0.52737   0.09914   0.30545   0.00000  Uiso   1.00
O4505  O     0.53971   0.11153   0.29646   0.00000  Uiso   1.00
O4506  O     0.51304   0.08786   0.31397   0.00000  Uiso   1.00
C4507  C     1.18946   0.73340   0.06699   0.00000  Uiso   1.00
O4508  O     1.17268   0.74454   0.06331   0.00000  Uiso   1.00
O4509  O     1.20668   0.72316   0.06987   0.00000  Uiso   1.00
C4510  C     0.22002   0.43272  -0.15407   0.00000  Uiso   1.00
O4511  O     0.23784   0.43204  -0.14513   0.00000  Uiso   1.00
O4512  O     0.20189   0.43258  -0.16223   0.00000  Uiso   1.00
C4513  C     0.59627  -0.03659   1.00653   0.00000  Uiso   1.00
O4514  O     0.60045  -0.05572   1.00272   0.00000  Uiso   1.00
O4515  O     0.59125  -0.01754   1.01124   0.00000  Uiso   1.00
C4516  C     0.26759   0.55386   0.82553   0.00000  Uiso   1.00
O4517  O     0.26562   0.57364   0.82383   0.00000  Uiso   1.00
O4518  O     0.27003   0.53424   0.82676   0.00000  Uiso   1.00
C4519  C     0.35824   0.80230   1.09371   0.00000  Uiso   1.00
O4520  O     0.36595   0.80962   1.07717   0.00000  Uiso   1.00
O4521  O     0.35104   0.79459   1.11031   0.00000  Uiso   1.00
C4522  C     0.35135   0.20779   0.10480   0.00000  Uiso   1.00
O4523  O     0.36935   0.21218   0.11159   0.00000  Uiso   1.00
O4524  O     0.33308   0.20359   0.09723   0.00000  Uiso   1.00
C4525  C     0.46667   0.30593   0.10735   0.00000  Uiso   1.00
O4526  O     0.45863   0.32271   0.10096   0.00000  Uiso   1.00
O4527  O     0.47483   0.28950   0.11501   0.00000  Uiso   1.00
C4528  C     0.86859   0.63398   0.37918   0.00000  Uiso   1.00
O4529  O     0.86650   0.64978   0.36742   0.00000  Uiso   1.00
O4530  O     0.87134   0.61817   0.39069   0.00000  Uiso   1.00
C4531  C    -0.07315   0.58146   0.63831   0.00000  Uiso   1.00
O4532  O    -0.07673   0.59892   0.62990   0.00000  Uiso   1.00
O4533  O    -0.07010   0.56381   0.64720   0.00000  Uiso   1.00
C4534  C     1.07046   0.24572   0.59163   0.00000  Uiso   1.00
O4535  O     1.08227   0.23059   0.59683   0.00000  Uiso   1.00
O4536  O     1.05883   0.26096   0.58569   0.00000  Uiso   1.00
C4537  C    -0.21405   0.80962   0.60087   0.00000  Uiso   1.00
O4538  O    -0.21004   0.82438   0.58835   0.00000  Uiso   1.00
O4539  O    -0.21748   0.79301   0.61224   0.00000  Uiso   1.00
C4540  C     0.11995   0.66810   0.41942   0.00000  Uiso   1.00
O4541  O     0.11850   0.68665   0.42656   0.00000  Uiso   1.00
O4542  O     0.12038   0.64918   0.41339   0.00000  Uiso   1.00
C4543  C     0.10022  -0.07711   0.46335   0.00000  Uiso   1.00
O4544  O     0.11329  -0.06481   0.47211   0.00000  Uiso   1.00
O4545  O     0.08624  -0.08831   0.45469   0.00000  Uiso   1.00
C4546  C    -0.04100   0.45833   0.47959   0.00000  Uiso   1.00
O4547  O    -0.04017   0.47480   0.46738   0.00000  Uiso   1.00
O4548  O    -0.04196   0.44290   0.49104   0.00000  Uiso   1.00
C4549  C     0.92456   0.21476   0.79611   0.00000  Uiso   1.00
O4550  O     0.91041   0.20817   0.80843   0.00000  Uiso   1.00
O4551  O     0.93884   0.22085   0.78362   0.00000  Uiso   1.00
C4552  C     1.02172   0.61302   0.82187   0.00000  Uiso   1.00
O4553  O     1.02758   0.61013   0.80289   0.00000  Uiso   1.00
O4554  O     1.01618   0.61614   0.84065   0.00000  Uiso   1.00
C4555  C     0.51543   0.09639   0.06924   0.00000  Uiso   1.00
O4556  O     0.50148   0.09222   0.08235   0.00000  Uiso   1.00
O4557  O     0.53015   0.09910   0.05537   0.00000  Uiso   1.00
C4558  C     0.82527   0.86013   0.65715   0.00000  Uiso   1.00
O4559  O     0.81891   0.84634   0.64477   0.00000  Uiso   1.00
O4560  O     0.83400   0.87287   0.67003   0.00000  Uiso   1.00
C4561  C     0.18865   0.40321   0.29876   0.00000  Uiso   1.00
O4562  O     0.18385   0.38737   0.30994   0.00000  Uiso   1.00
O4563  O     0.19127   0.41917   0.28722   0.00000  Uiso   1.00
C4564  C     0.48202   0.71826  -0.06256   0.00000  Uiso   1.00
O4565  O     0.47730   0.69891  -0.06375   0.00000  Uiso   1.00
O4566  O     0.48648   0.73716  -0.06107   0.00000  Uiso   1.00
C4567  C     0.62661   0.54303   0.88887   0.00000  Uiso   1.00
O4568  O     0.61383   0.53512   0.87629   0.00000  Uiso   1.00
O4569  O     0.63961   0.55187   0.90096   0.00000  Uiso   1.00
C4570  C     0.60423   1.12054   0.98849   0.00000  Uiso   1.00
O4571  O     0.58827   1.12001   0.97709   0.00000  Uiso   1.00
O4572  O     0.62028   1.12271   0.99990   0.00000  Uiso   1.00
C4573  C     0.78284   0.88695   0.38395   0.00000  Uiso   1.00
O4574  O     0.77069   0.88482   0.36844   0.00000  Uiso   1.00
O4575  O     0.79630   0.88721   0.39895   0.00000  Uiso   1.00
C4576  C     0.26232   1.04948   1.00189   0.00000  Uiso   1.00
O4577  O     0.25683   1.03228   0.99478   0.00000  Uiso   1.00
O4578  O     0.26869   1.06767   1.00911   0.00000  Uiso   1.00
C4579  C     0.53589   0.31774   0.16358   0.00000  Uiso   1.00
O4580  O     0.51736   0.32177   0.15736   0.00000  Uiso   1.00
O4581  O     0.55481   0.31417   0.16926   0.00000  Uiso   1.00
C4582  C     0.01737   0.58211   0.53814   0.00000  Uiso   1.00
O4583  O     0.01487   0.59169   0.52069   0.00000  Uiso   1.00
O4584  O     0.02107   0.57227   0.55474   0.00000  Uiso   1.00
C4585  C     0.54383  -0.00898   0.58706   0.00000  Uiso   1.00
O4586  O     0.55837  -0.01732   0.57572   0.00000  Uiso   1.00
O4587  O     0.52789  -0.00226   0.59714   0.00000  Uiso   1.00
C4588  C     0.08338   0.58718   0.51196   0.00000  Uiso   1.00
O4589  O     0.09610   0.60217   0.51489   0.00000  Uiso   1.00
O4590  O     0.07147   0.57138   0.50897   0.00000  Uiso   1.00
C4591  C     0.52503   0.78061   0.91718   0.00000  Uiso   1.00
O4592  O     0.54217   0.77729   0.90841   0.00000  Uiso   1.00
O4593  O     0.50768   0.78413   0.92561   0.00000  Uiso   1.00
C4594  C     0.37494   0.78167   0.19006   0.00000  Uiso   1.00
O4595  O     0.37645   0.76807   0.20432   0.00000  Uiso   1.00
O4596  O     0.37500   0.79482   0.17507   0.00000  Uiso   1.00
C4597  C     0.23241   0.18721   0.38512   0.00000  Uiso   1.00
O4598  O     0.22438   0.19498   0.36808   0.00000  Uiso   1.00
O4599  O     0.23925   0.17998   0.40204   0.00000  Uiso   1.00
C4600  C     0.09327   0.75306   0.66150   0.00000  Uiso   1.00
O4601  O     0.11159   0.74674   0.65676   0.00000  Uiso   1.00
O4602  O     0.07527   0.75909   0.66791   0.00000  Uiso   1.00
C4603  C    -0.23406   0.33707   0.71499   0.00000  Uiso   1.00
O4604  O    -0.22354   0.32760   0.70066   0.00000  Uiso   1.00
O4605  O    -0.24448   0.34583   0.72915   0.00000  Uiso   1.00
C4606  C     0.26731   0.69930   0.21265   0.00000  Uiso   1.00
O4607  O     0.25987   0.69758   0.23107   0.00000  Uiso   1.00
O4608  O     0.27431   0.70224   0.19419   0.00000  Uiso   1.00
C4609  C     1.14768   0.24988   0.37350   0.00000  Uiso   1.00
O4610  O     1.13614   0.23995   0.38596   0.00000  Uiso   1.00
O4611  O     1.15910   0.26098   0.36137   0.00000  Uiso   1.00
C4612  C     0.25252   0.22783   0.67618   0.00000  Uiso   1.00
O4613  O     0.24085   0.21513   0.68642   0.00000  Uiso   1.00
O4614  O     0.26308   0.24066   0.66465   0.00000  Uiso   1.00
C4615  C     0.20209   0.56252   0.78025   0.00000  Uiso   1.00
O4616  O     0.19516   0.56160   0.76203   0.00000  Uiso   1.00
O4617  O     0.20911   0.56407   0.79856   0.00000  Uiso   1.00
C4618  C     0.74536   0.93006   0.65798   0.00000  Uiso   1.00
O4619  O     0.75745   0.93001   0.64198   0.00000  Uiso   1.00
O4620  O     0.73318   0.93063   0.67369   0.00000  Uiso   1.00
C4621  C     0.38524   0.87085   0.28100   0.00000  Uiso   1.00
O4622  O     0.36562   0.87356   0.27963   0.00000  Uiso   1.00
O4623  O     0.40476   0.86697   0.28258   0.00000  Uiso   1.00
C4624  C     0.70115   0.35796   0.04777   0.00000  Uiso   1.00
O4625  O     0.68635   0.37039   0.04372   0.00000  Uiso   1.00
O4626  O     0.71629   0.34510   0.05133   0.00000  Uiso   1.00
C4627  C     0.64126   0.12189  -0.13270   0.00000  Uiso   1.00
O4628  O     0.64212   0.13739  -0.11972   0.00000  Uiso   1.00
O4629  O     0.64061   0.10647  -0.14518   0.00000  Uiso   1.00
C4630  C     0.14765   0.71360   0.02869   0.00000  Uiso   1.00
O4631  O     0.13553   0.71620   0.04431   0.00000  Uiso   1.00
O4632  O     0.15971   0.71037   0.01305   0.00000  Uiso   1.00
C4633  C     0.47843   0.25213   0.16238   0.00000  Uiso   1.00
O4634  O     0.45988   0.24493   0.16242   0.00000  Uiso   1.00
O4635  O     0.49680   0.25995   0.16233   0.00000  Uiso   1.00
C4636  C    -0.12331   0.16283   0.13189   0.00000  Uiso   1.00
O4637  O    -0.11726   0.16873   0.11422   0.00000  Uiso   1.00
O4638  O    -0.13023   0.15648   0.14953   0.00000  Uiso   1.00
C4639  C     0.51700   0.25311   0.97559   0.00000  Uiso   1.00
O4640  O     0.52824   0.25547   0.95935   0.00000  Uiso   1.00
O4641  O     0.50528   0.24980   0.99145   0.00000  Uiso   1.00
C4642  C     0.15435   0.33574   0.36809   0.00000  Uiso   1.00
O4643  O     0.14826   0.34741   0.38306   0.00000  Uiso   1.00
O4644  O     0.15908   0.32396   0.35230   0.00000  Uiso   1.00
C4645  C     0.45394  -0.07289   0.70763   0.00000  Uiso   1.00
O4646  O     0.44480  -0.08731   0.69726   0.00000  Uiso   1.00
O4647  O     0.46273  -0.05767   0.71724   0.00000  Uiso   1.00
C4648  C     1.29790   0.99247   0.65852   0.00000  Uiso   1.00
O4649  O     1.30392   0.98711   0.67701   0.00000  Uiso   1.00
O4650  O     1.29143   0.99778   0.64057   0.00000  Uiso   1.00
C4651  C     0.76037  -0.08141   0.76995   0.00000  Uiso   1.00
O4652  O     0.76817  -0.08151   0.75130   0.00000  Uiso   1.00
O4653  O     0.75107  -0.08117   0.78808   0.00000  Uiso   1.00
C4654  C     0.95086   0.12670   0.07319   0.00000  Uiso   1.00
O4655  O     0.96674   0.11502   0.07664   0.00000  Uiso   1.00
O4656  O     0.93518   0.13856   0.06952   0.00000  Uiso   1.00
C4657  C     0.46747   0.44630   0.00126   0.00000  Uiso   1.00
O4658  O     0.47218   0.44868  -0.01799   0.00000  Uiso   1.00
O4659  O     0.46316   0.44365   0.02081   0.00000  Uiso   1.00
C4660  C    -0.05657  -0.06967   0.58827   0.00000  Uiso   1.00
O4661  O    -0.03650  -0.06954   0.58529   0.00000  Uiso   1.00
O4662  O    -0.07527  -0.06851   0.59407   0.00000  Uiso   1.00
C4663  C     0.83584   0.31212   0.72490   0.00000  Uiso   1.00
O4664  O     0.83147   0.30862   0.74382   0.00000  Uiso   1.00
O4665  O     0.83964   0.31442   0.70568   0.00000  Uiso   1.00
C4666  C     0.11820   0.70058   0.49883   0.00000  Uiso   1.00
O4667  O     0.11579   0.71159   0.51580   0.00000  Uiso   1.00
O4668  O     0.11946   0.68989   0.48163   0.00000  Uiso   1.00
C4669  C     0.54022   0.01743   0.41617   0.00000  Uiso   1.00
O4670  O     0.55061   0.00367   0.40649   0.00000  Uiso   1.00
O4671  O     0.52914   0.03124   0.42568   0.00000  Uiso   1.00
C4672  C     0.13874   0.74012   0.57933   0.00000  Uiso   1.00
O4673  O     0.12787   0.73907   0.59596   0.00000  Uiso   1.00
O4674  O     0.14841   0.74020   0.56190   0.00000  Uiso   1.00
C4675  C     0.54234   0.11322   0.70064   0.00000  Uiso   1.00
O4676  O     0.52371   0.11841   0.70580   0.00000  Uiso   1.00
O4677  O     0.56067   0.10678   0.69564   0.00000  Uiso   1.00
C4678  C     0.08695   0.80613   0.92896   0.00000  Uiso   1.00
O4679  O     0.07236   0.81673   0.93763   0.00000  Uiso   1.00
O4680  O     0.10112   0.79545   0.91985   0.00000  Uiso   1.00
C4681  C     0.77676   0.17373   0.56657   0.00000  Uiso   1.00
O4682  O     0.77534   0.18137   0.58479   0.00000  Uiso   1.00
O4683  O     0.78079   0.16621   0.54813   0.00000  Uiso   1.00
C4684  C     0.93526   0.21985   0.38191   0.00000  Uiso   1.00
O4685  O     0.92300   0.22105   0.39801   0.00000  Uiso   1.00
O4686  O     0.94858   0.21850   0.36693   0.00000  Uiso   1.00
C4687  C     0.79262   0.72188  -0.15779   0.00000  Uiso   1.00
O4688  O     0.78721   0.73429  -0.17227   0.00000  Uiso   1.00
O4689  O     0.79751   0.70905  -0.14415   0.00000  Uiso   1.00
C4690  C     0.17869   0.83985   0.00951   0.00000  Uiso   1.00
O4691  O     0.19524   0.83487   0.01912   0.00000  Uiso   1.00
O4692  O     0.16234   0.84423  -0.00103   0.00000  Uiso   1.00
C4693  C     0.09742   0.55243  -0.03558   0.00000  Uiso   1.00
O4694  O     0.08281   0.54673  -0.04835   0.00000  Uiso   1.00
O4695  O     0.11198   0.56056  -0.02411   0.00000  Uiso   1.00
C4696  C     0.18349   0.79313   0.43583   0.00000  Uiso   1.00
O4697  O     0.18847   0.78063   0.42088   0.00000  Uiso   1.00
O4698  O     0.17856   0.80626   0.44995   0.00000  Uiso   1.00
C4699  C     0.05751   0.73455   0.53766   0.00000  Uiso   1.00
O4700  O     0.06767   0.73270   0.52049   0.00000  Uiso   1.00
O4701  O     0.04752   0.73626   0.55511   0.00000  Uiso   1.00
C4702  C     0.48465   0.21554   0.26088   0.00000  Uiso   1.00
O4703  O     0.49229   0.23407   0.26149   0.00000  Uiso   1.00
O4704  O     0.47700   0.19688   0.26142   0.00000  Uiso   1.00
C4705  C     0.85968   0.83697   0.50291   0.00000  Uiso   1.00
O4706  O     0.84416   0.82677   0.49558   0.00000  Uiso   1.00
O4707  O     0.87635   0.84629   0.50949   0.00000  Uiso   1.00
C4708  C    -0.10693   0.36031   0.18571   0.00000  Uiso   1.00
O4709  O    -0.09194   0.35095   0.17629   0.00000  Uiso   1.00
O4710  O    -0.12161   0.36993   0.19474   0.00000  Uiso   1.00
C4711  C     0.68153   0.37987   0.18690   0.00000  Uiso   1.00
O4712  O     0.69393   0.38970   0.19912   0.00000  Uiso   1.00
O4713  O     0.66833   0.37029   0.17497   0.00000  Uiso   1.00
C4714  C     0.36378   0.40378   0.10711   0.00000  Uiso   1.00
O4715  O     0.38100   0.41112   0.11347   0.00000  Uiso   1.00
O4716  O     0.34660   0.39636   0.10054   0.00000  Uiso   1.00
C4717  C     0.04792   1.28865   0.83285   0.00000  Uiso   1.00
O4718  O     0.06003   1.29991   0.84392   0.00000  Uiso   1.00
O4719  O     0.03579   1.27753   0.82189   0.00000  Uiso   1.00
C4720  C     0.07497   0.01058   0.18582   0.00000  Uiso   1.00
O4721  O     0.06830   0.00491   0.20359   0.00000  Uiso   1.00
O4722  O     0.08211   0.01659   0.16809   0.00000  Uiso   1.00
C4723  C     0.51735   1.09812   0.44137   0.00000  Uiso   1.00
O4724  O     0.50799   1.08516   0.45303   0.00000  Uiso   1.00
O4725  O     0.52499   1.11088   0.42750   0.00000  Uiso   1.00
C4726  C     0.08814  -0.03634   0.62966   0.00000  Uiso   1.00
O4727  O     0.07522  -0.05021   0.63458   0.00000  Uiso   1.00
O4728  O     0.10194  -0.02318   0.62276   0.00000  Uiso   1.00
C4729  C     1.07720   0.81875   0.23197   0.00000  Uiso   1.00
O4730  O     1.09532   0.81629   0.22297   0.00000  Uiso   1.00
O4731  O     1.05849   0.82120   0.23968   0.00000  Uiso   1.00
C4732  C     0.31004  -0.11091   0.90837   0.00000  Uiso   1.00
O4733  O     0.29101  -0.11256   0.91354   0.00000  Uiso   1.00
O4734  O     0.32930  -0.11156   0.90327   0.00000  Uiso   1.00
C4735  C     0.03365   0.29981  -0.08976   0.00000  Uiso   1.00
O4736  O     0.04417   0.31100  -0.10260   0.00000  Uiso   1.00
O4737  O     0.02423   0.28817  -0.07700   0.00000  Uiso   1.00
C4738  C     0.10423   0.02585   0.34009   0.00000  Uiso   1.00
O4739  O     0.10622   0.03860   0.32518   0.00000  Uiso   1.00
O4740  O     0.10380   0.01360   0.35565   0.00000  Uiso   1.00
C4741  C     0.41630   0.91657  -0.23636   0.00000  Uiso   1.00
O4742  O     0.42663   0.90535  -0.24905   0.00000  Uiso   1.00
O4743  O     0.40571   0.92835  -0.22417   0.00000  Uiso   1.00
C4744  C     0.25819   0.38430   0.81364   0.00000  Uiso   1.00
O4745  O     0.26845   0.39138   0.79850   0.00000  Uiso   1.00
O4746  O     0.24775   0.37715   0.82871   0.00000  Uiso   1.00
C4747  C     0.87988   0.56964   0.41621   0.00000  Uiso   1.00
O4748  O     0.88456   0.57378   0.43503   0.00000  Uiso   1.00
O4749  O     0.87430   0.56464   0.39782   0.00000  Uiso   1.00
C4750  C     0.73978   0.83567  -0.21628   0.00000  Uiso   1.00
O4751  O     0.74159   0.83280  -0.19665   0.00000  Uiso   1.00
O4752  O     0.73930   0.83901  -0.23560   0.00000  Uiso   1.00
C4753  C     0.76463   0.80706   0.66921   0.00000  Uiso   1.00
O4754  O     0.76962   0.81966   0.65465   0.00000  Uiso   1.00
O4755  O     0.75951   0.79267   0.68221   0.00000  Uiso   1.00
C4756  C     0.13717   0.22350   0.84451   0.00000  Uiso   1.00
O4757  O     0.14123   0.20600   0.83554   0.00000  Uiso   1.00
O4758  O     0.13172   0.24089   0.85344   0.00000  Uiso   1.00
C4759  C     0.33645   0.05310  -0.15496   0.00000  Uiso   1.00
O4760  O     0.32131   0.06073  -0.14417   0.00000  Uiso   1.00
O4761  O     0.35173   0.04539  -0.16545   0.00000  Uiso   1.00
C4762  C     0.25395   0.26170   0.19853   0.00000  Uiso   1.00
O4763  O     0.24116   0.27017   0.18646   0.00000  Uiso   1.00
O4764  O     0.26644   0.25333   0.21151   0.00000  Uiso   1.00
C4765  C     0.39797   1.19591   0.71445   0.00000  Uiso   1.00
O4766  O     0.38208   1.18526   0.71869   0.00000  Uiso   1.00
O4767  O     0.41401   1.20680   0.71021   0.00000  Uiso   1.00
C4768  C     0.32328   0.13587   0.59460   0.00000  Uiso   1.00
O4769  O     0.31468   0.14337   0.57834   0.00000  Uiso   1.00
O4770  O     0.33349   0.12800   0.60982   0.00000  Uiso   1.00
C4771  C     0.31002   0.58828   1.01712   0.00000  Uiso   1.00
O4772  O     0.31377   0.58801   1.03635   0.00000  Uiso   1.00
O4773  O     0.30491   0.58884   0.99737   0.00000  Uiso   1.00
C4774  C     0.25883   0.58968  -0.05705   0.00000  Uiso   1.00
O4775  O     0.24772   0.57519  -0.06517   0.00000  Uiso   1.00
O4776  O     0.27019   0.60456  -0.04989   0.00000  Uiso   1.00
C4777  C     0.98519   0.82542   0.06099   0.00000  Uiso   1.00
O4778  O     0.98347   0.83197   0.07969   0.00000  Uiso   1.00
O4779  O     0.98768   0.81864   0.04249   0.00000  Uiso   1.00
C4780  C     0.29498   0.83209   0.95365   0.00000  Uiso   1.00
O4781  O     0.31171   0.82182   0.95526   0.00000  Uiso   1.00
O4782  O     0.27828   0.84239   0.95036   0.00000  Uiso   1.00
C4783  C     1.12577   0.86462   0.46015   0.00000  Uiso   1.00
O4784  O     1.14485   0.85900   0.46298   0.00000  Uiso   1.00
O4785  O     1.10746   0.87055   0.45834   0.00000  Uiso   1.00
C4786  C     0.65602   1.11676   0.37585   0.00000  Uiso   1.00
O4787  O     0.65123   1.09983   0.38547   0.00000  Uiso   1.00
O4788  O     0.65977   1.13391   0.36597   0.00000  Uiso   1.00
C4789  C    -0.02290   1.03281   0.47159   0.00000  Uiso   1.00
O4790  O    -0.01575   1.01429   0.47266   0.00000  Uiso   1.00
O4791  O    -0.03074   1.05113   0.47024   0.00000  Uiso   1.00
C4792  C     0.22070   1.04316   0.36913   0.00000  Uiso   1.00
O4793  O     0.22138   1.03027   0.35330   0.00000  Uiso   1.00
O4794  O     0.22028   1.05654   0.38388   0.00000  Uiso   1.00
C4795  C     1.11214  -0.04953   0.14775   0.00000  Uiso   1.00
O4796  O     1.13080  -0.04373   0.14460   0.00000  Uiso   1.00
O4797  O     1.09312  -0.05510   0.14935   0.00000  Uiso   1.00
C4798  C     1.21663  -0.01346   0.17148   0.00000  Uiso   1.00
O4799  O     1.20296  -0.01979   0.18522   0.00000  Uiso   1.00
O4800  O     1.23121  -0.00741   0.15900   0.00000  Uiso   1.00
C4801  C     0.80654   0.68965   0.71245   0.00000  Uiso   1.00
O4802  O     0.80079   0.70470   0.70122   0.00000  Uiso   1.00
O4803  O     0.81105   0.67388   0.72383   0.00000  Uiso   1.00
C4804  C     0.56058   0.70375   0.87860   0.00000  Uiso   1.00
O4805  O     0.56356   0.71269   0.89623   0.00000  Uiso   1.00
O4806  O     0.55760   0.69395   0.86159   0.00000  Uiso   1.00
C4807  C     0.17400   0.50487   0.24853   0.00000  Uiso   1.00
O4808  O     0.19294   0.50131   0.25154   0.00000  Uiso   1.00
O4809  O     0.15497   0.50823   0.24626   0.00000  Uiso   1.00
C4810  C     0.73665   0.46416  -0.10826   0.00000  Uiso   1.00
O4811  O     0.73108   0.44739  -0.11791   0.00000  Uiso   1.00
O4812  O     0.74175   0.48231  -0.10113   0.00000  Uiso   1.00
C4813  C     0.88493   0.92820   0.12799   0.00000  Uiso   1.00
O4814  O     0.87419   0.91075   0.12665   0.00000  Uiso   1.00
O4815  O     0.89508   0.94492   0.12868   0.00000  Uiso   1.00
C4816  C     0.93547   0.61665   0.33850   0.00000  Uiso   1.00
O4817  O     0.92411   0.60697   0.32531   0.00000  Uiso   1.00
O4818  O     0.94536   0.62721   0.35202   0.00000  Uiso   1.00
C4819  C     0.44514   1.13251   0.58116   0.00000  Uiso   1.00
O4820  O     0.44053   1.14912   0.59191   0.00000  Uiso   1.00
O4821  O     0.44769   1.11627   0.57002   0.00000  Uiso   1.00
C4822  C     0.67115   0.89298   0.30939   0.00000  Uiso   1.00
O4823  O     0.67591   0.87977   0.29519   0.00000  Uiso   1.00
O4824  O     0.66598   0.90569   0.32353   0.00000  Uiso   1.00
C4825  C     0.33678   0.76116   0.85885   0.00000  Uiso   1.00
O4826  O     0.34159   0.77829   0.86830   0.00000  Uiso   1.00
O4827  O     0.33145   0.74422   0.84965   0.00000  Uiso   1.00
C4828  C     0.74614   0.77853   0.30067   0.00000  Uiso   1.00
O4829  O     0.73809   0.78955   0.28596   0.00000  Uiso   1.00
O4830  O     0.75390   0.76805   0.31567   0.00000  Uiso   1.00
C4831  C     0.22624   0.61829   0.77609   0.00000  Uiso   1.00
O4832  O     0.23210   0.61203   0.75784   0.00000  Uiso   1.00
O4833  O     0.22004   0.62484   0.79453   0.00000  Uiso   1.00
C4834  C     0.11482   0.55512   0.76898   0.00000  Uiso   1.00
O4835  O     0.12302   0.53762   0.76380   0.00000  Uiso   1.00
O4836  O     0.10719   0.57287   0.77390   0.00000  Uiso   1.00
C4837  C     0.13008   0.40693   0.87105   0.00000  Uiso   1.00
O4838  O     0.11670   0.40527   0.88559   0.00000  Uiso   1.00
O4839  O     0.14420   0.40988   0.85737   0.00000  Uiso   1.00
C4840  C     0.74675   0.36847   0.24584   0.00000  Uiso   1.00
O4841  O     0.73588   0.36074   0.23096   0.00000  Uiso   1.00
O4842  O     0.75707   0.37647   0.26052   0.00000  Uiso   1.00
C4843  C     0.46234   0.12723   0.69900   0.00000  Uiso   1.00
O4844  O     0.44666   0.11862   0.70770   0.00000  Uiso   1.00
O4845  O     0.47745   0.13648   0.68966   0.00000  Uiso   1.00
C4846  C     0.44710   1.14375   0.05868   0.00000  Uiso   1.00
O4847  O     0.45022   1.14853   0.07796   0.00000  Uiso   1.00
O4848  O     0.44408   1.13945   0.03931   0.00000  Uiso   1.00
C4849  C    -0.00610   0.74382   0.93257   0.00000  Uiso   1.00
O4850  O    -0.00341   0.74478   0.95170   0.00000  Uiso   1.00
O4851  O    -0.00606   0.74519   0.91268   0.00000  Uiso   1.00
C4852  C     0.16714   0.46727   0.72748   0.00000  Uiso   1.00
O4853  O     0.15688   0.48448   0.72816   0.00000  Uiso   1.00
O4854  O     0.17692   0.44986   0.72753   0.00000  Uiso   1.00
C4855  C     0.29587   1.09099   0.74139   0.00000  Uiso   1.00
O4856  O     0.27646   1.08659   0.73796   0.00000  Uiso   1.00
O4857  O     0.31520   1.09474   0.74556   0.00000  Uiso   1.00
C4858  C     0.11960   0.34813  -0.02936   0.00000  Uiso   1.00
O4859  O     0.12056   0.33831  -0.04674   0.00000  Uiso   1.00
O4860  O     0.11979   0.35855  -0.01225   0.00000  Uiso   1.00
C4861  C     0.03450  -0.08467   0.52139   0.00000  Uiso   1.00
O4862  O     0.03226  -0.08441   0.50157   0.00000  Uiso   1.00
O4863  O     0.03843  -0.08375   0.54104   0.00000  Uiso   1.00
C4864  C     0.45091   0.21860   0.11573   0.00000  Uiso   1.00
O4865  O     0.43669   0.21631   0.13013   0.00000  Uiso   1.00
O4866  O     0.46455   0.21942   0.10143   0.00000  Uiso   1.00
C4867  C     0.86555   0.72156   0.28796   0.00000  Uiso   1.00
O4868  O     0.86141   0.73899   0.29727   0.00000  Uiso   1.00
O4869  O     0.87062   0.70480   0.27831   0.00000  Uiso   1.00
C4870  C     0.31267   0.69886  -0.19232   0.00000  Uiso   1.00
O4871  O     0.32178   0.71533  -0.19731   0.00000  Uiso   1.00
O4872  O     0.30315   0.68212  -0.18770   0.00000  Uiso   1.00
C4873  C     0.83110   1.12283   0.68200   0.00000  Uiso   1.00
O4874  O     0.81733   1.13085   0.67020   0.00000  Uiso   1.00
O4875  O     0.84561   1.11473   0.69314   0.00000  Uiso   1.00
C4876  C     0.15746   0.71170   0.38725   0.00000  Uiso   1.00
O4877  O     0.16943   0.69958   0.37655   0.00000  Uiso   1.00
O4878  O     0.14566   0.72365   0.39812   0.00000  Uiso   1.00
C4879  C     0.64503   0.86625   0.87990   0.00000  Uiso   1.00
O4880  O     0.65543   0.86544   0.89711   0.00000  Uiso   1.00
O4881  O     0.63386   0.86629   0.86300   0.00000  Uiso   1.00
C4882  C     0.12202   0.86230   0.07498   0.00000  Uiso   1.00
O4883  O     0.10347   0.87022   0.07404   0.00000  Uiso   1.00
O4884  O     0.14074   0.85476   0.07533   0.00000  Uiso   1.00
C4885  C     0.59520   0.04734   0.07014   0.00000  Uiso   1.00
O4886  O     0.59773   0.06160   0.05615   0.00000  Uiso   1.00
O4887  O     0.59041   0.03317   0.08284   0.00000  Uiso   1.00
C4888  C     0.63315   0.74945   0.83387   0.00000  Uiso   1.00
O4889  O     0.61448   0.75479   0.83119   0.00000  Uiso   1.00
O4890  O     0.65194   0.74380   0.83693   0.00000  Uiso   1.00
C4891  C     0.99138   0.34128   0.15149   0.00000  Uiso   1.00
O4892  O     0.99558   0.35511   0.16515   0.00000  Uiso   1.00
O4893  O     0.98756   0.32839   0.13692   0.00000  Uiso   1.00
C4894  C    -0.01048   0.20880   0.58901   0.00000  Uiso   1.00
O4895  O    -0.02612   0.22060   0.59250   0.00000  Uiso   1.00
O4896  O     0.00616   0.19794   0.58543   0.00000  Uiso   1.00
C4897  C     0.66903   0.60846   0.88530   0.00000  Uiso   1.00
O4898  O     0.67776   0.61351   0.90253   0.00000  Uiso   1.00
O4899  O     0.66172   0.60243   0.86733   0.00000  Uiso   1.00
C4900  C     1.07668   0.87205   0.74683   0.00000  Uiso   1.00
O4901  O     1.05884   0.87504   0.75583   0.00000  Uiso   1.00
O4902  O     1.09479   0.87004   0.73887   0.00000  Uiso   1.00
C4903  C     0.28470   1.01881   0.26962   0.00000  Uiso   1.00
O4904  O     0.26571   1.01839   0.26436   0.00000  Uiso   1.00
O4905  O     0.30372   1.01976   0.27584   0.00000  Uiso   1.00
C4906  C     0.34642   0.08850   0.38783   0.00000  Uiso   1.00
O4907  O     0.34824   0.07896   0.37069   0.00000  Uiso   1.00
O4908  O     0.34472   0.09801   0.40496   0.00000  Uiso   1.00
C4909  C     1.07458  -0.03024   1.32938   0.00000  Uiso   1.00
O4910  O     1.08993  -0.04190   1.32430   0.00000  Uiso   1.00
O4911  O     1.05934  -0.01850   1.33535   0.00000  Uiso   1.00
C4912  C     0.58090   0.93405   0.80138   0.00000  Uiso   1.00
O4913  O     0.58816   0.95219   0.80009   0.00000  Uiso   1.00
O4914  O     0.57426   0.91551   0.80366   0.00000  Uiso   1.00
C4915  C     0.16078   0.72851   0.71177   0.00000  Uiso   1.00
O4916  O     0.17194   0.74044   0.69937   0.00000  Uiso   1.00
O4917  O     0.15010   0.71701   0.72420   0.00000  Uiso   1.00
C4918  C     0.77671   0.60774   0.23692   0.00000  Uiso   1.00
O4919  O     0.79178   0.60368   0.24931   0.00000  Uiso   1.00
O4920  O     0.76118   0.61198   0.22513   0.00000  Uiso   1.00
C4921  C     0.48700   0.97482   0.54243   0.00000  Uiso   1.00
O4922  O     0.49439   0.96513   0.52643   0.00000  Uiso   1.00
O4923  O     0.47804   0.98315   0.55828   0.00000  Uiso   1.00
C4924  C     0.02055   0.76161   0.46133   0.00000  Uiso   1.00
O4925  O     0.01281   0.75240   0.47728   0.00000  Uiso   1.00
O4926  O     0.02751   0.77218   0.44584   0.00000  Uiso   1.00
C4927  C     0.17542  -0.03619   0.61705   0.00000  Uiso   1.00
O4928  O     0.17757  -0.02827   0.63512   0.00000  Uiso   1.00
O4929  O     0.17305  -0.04432   0.59917   0.00000  Uiso   1.00
C4930  C     0.43898   1.05099   0.30341   0.00000  Uiso   1.00
O4931  O     0.42313   1.04635   0.29243   0.00000  Uiso   1.00
O4932  O     0.45537   1.05498   0.31368   0.00000  Uiso   1.00
C4933  C     0.10408   0.08834   0.41423   0.00000  Uiso   1.00
O4934  O     0.09522   0.06992   0.41108   0.00000  Uiso   1.00
O4935  O     0.11236   0.10590   0.41726   0.00000  Uiso   1.00
C4936  C     0.45750   0.08171   0.37481   0.00000  Uiso   1.00
O4937  O     0.44481   0.08712   0.38886   0.00000  Uiso   1.00
O4938  O     0.47185   0.07784   0.36125   0.00000  Uiso   1.00
C4939  C     0.76411   0.22298   0.43374   0.00000  Uiso   1.00
O4940  O     0.75786   0.21856   0.45205   0.00000  Uiso   1.00
O4941  O     0.76901   0.22733   0.41476   0.00000  Uiso   1.00
C4942  C     0.22964   0.38594  -0.10086   0.00000  Uiso   1.00
O4943  O     0.22940   0.40572  -0.10313   0.00000  Uiso   1.00
O4944  O     0.23043   0.36630  -0.09824   0.00000  Uiso   1.00
C4945  C     0.09958   0.91716   0.52277   0.00000  Uiso   1.00
O4946  O     0.09568   0.93410   0.51306   0.00000  Uiso   1.00
O4947  O     0.10324   0.90047   0.53252   0.00000  Uiso   1.00
C4948  C     0.05248   0.29561   0.97159   0.00000  Uiso   1.00
O4949  O     0.04705   0.31108   0.96060   0.00000  Uiso   1.00
O4950  O     0.05743   0.28142   0.98432   0.00000  Uiso   1.00
C4951  C    -0.13583   0.36143   0.04791   0.00000  Uiso   1.00
O4952  O    -0.12803   0.37960   0.04638   0.00000  Uiso   1.00
O4953  O    -0.14405   0.34327   0.05001   0.00000  Uiso   1.00
C4954  C     0.32695   0.90685  -0.03734   0.00000  Uiso   1.00
O4955  O     0.31587   0.89010  -0.03794   0.00000  Uiso   1.00
O4956  O     0.33859   0.92337  -0.03636   0.00000  Uiso   1.00
C4957  C     0.52486   0.83260  -0.06418   0.00000  Uiso   1.00
O4958  O     0.51686   0.83196  -0.04533   0.00000  Uiso   1.00
O4959  O     0.53175   0.83266  -0.08347   0.00000  Uiso   1.00
C4960  C    -0.02904   0.36975   1.00250   0.00000  Uiso   1.00
O4961  O    -0.03928   0.38387   0.99308   0.00000  Uiso   1.00
O4962  O    -0.01862   0.35508   1.01083   0.00000  Uiso   1.00
C4963  C     0.20239   0.36775   0.15499   0.00000  Uiso   1.00
O4964  O     0.19483   0.38625   0.15904   0.00000  Uiso   1.00
O4965  O     0.20991   0.34954   0.15079   0.00000  Uiso   1.00
C4966  C     0.15227   0.43221   0.10992   0.00000  Uiso   1.00
O4967  O     0.17140   0.42653   0.11093   0.00000  Uiso   1.00
O4968  O     0.13331   0.43850   0.10986   0.00000  Uiso   1.00
C4969  C     0.54037   0.18356   0.02004   0.00000  Uiso   1.00
O4970  O     0.55848   0.18749   0.02641   0.00000  Uiso   1.00
O4971  O     0.52150   0.17975   0.01473   0.00000  Uiso   1.00
C4972  C     0.22359   0.43360   0.78055   0.00000  Uiso   1.00
O4973  O     0.21375   0.44642   0.79224   0.00000  Uiso   1.00
O4974  O     0.23162   0.41873   0.76953   0.00000  Uiso   1.00
C4975  C     0.57860   0.66564   1.04748   0.00000  Uiso   1.00
O4976  O     0.59076   0.66331   1.06305   0.00000  Uiso   1.00
O4977  O     0.56618   0.66890   1.03233   0.00000  Uiso   1.00
C4978  C     0.93822   0.94720   0.98445   0.00000  Uiso   1.00
O4979  O     0.92553   0.93176   0.98389   0.00000  Uiso   1.00
O4980  O     0.95108   0.96267   0.98421   0.00000  Uiso   1.00
C4981  C     0.34978   0.36820   0.84994   0.00000  Uiso   1.00
O4982  O     0.35660   0.37816   0.86526   0.00000  Uiso   1.00
O4983  O     0.34226   0.35872   0.83382   0.00000  Uiso   1.00
C4984  C     0.42065   0.28554   0.81628   0.00000  Uiso   1.00
O4985  O     0.43754   0.29618   0.81545   0.00000  Uiso   1.00
O4986  O     0.40242   0.27570   0.81799   0.00000  Uiso   1.00
C4987  C    -0.02258  -0.12193   0.85685   0.00000  Uiso   1.00
O4988  O    -0.01623  -0.13921   0.84845   0.00000  Uiso   1.00
O4989  O    -0.03084  -0.10567   0.86521   0.00000  Uiso   1.00
C4990  C     0.33901   0.68546   0.14029   0.00000  Uiso   1.00
O4991  O     0.34674   0.66838   0.14760   0.00000  Uiso   1.00
O4992  O     0.33154   0.70265   0.13347   0.00000  Uiso   1.00
C4993  C    -0.23904   1.10084   0.03678   0.00000  Uiso   1.00
O4994  O    -0.24368   1.11965   0.03160   0.00000  Uiso   1.00
O4995  O    -0.23402   1.08238   0.04207   0.00000  Uiso   1.00
C4996  C     0.83896   0.66010   0.12793   0.00000  Uiso   1.00
O4997  O     0.85695   0.66537   0.13359   0.00000  Uiso   1.00
O4998  O     0.82068   0.65596   0.12133   0.00000  Uiso   1.00
C4999  C    -0.06961   0.50503   0.09888   0.00000  Uiso   1.00
O5000  O    -0.05705   0.51117   0.11259   0.00000  Uiso   1.00
O5001  O    -0.08269   0.49930   0.08537   0.00000  Uiso   1.00
C5002  C     1.00621   0.18082   0.72185   0.00000  Uiso   1.00
O5003  O     0.99169   0.18407   0.70902   0.00000  Uiso   1.00
O5004  O     1.02042   0.17845   0.73667   0.00000  Uiso   1.00
C5005  C     0.90641   0.66232   1.19572   0.00000  Uiso   1.00
O5006  O     0.88710   0.66137   1.19121   0.00000  Uiso   1.00
O5007  O     0.92619   0.66505   1.20022   0.00000  Uiso   1.00
C5008  C     1.00217   0.68215   1.13584   0.00000  Uiso   1.00
O5009  O     1.01692   0.68812   1.12424   0.00000  Uiso   1.00
O5010  O     0.98761   0.67449   1.14740   0.00000  Uiso   1.00
C5011  C     1.17855   1.21477   0.07154   0.00000  Uiso   1.00
O5012  O     1.19634   1.20912   0.06494   0.00000  Uiso   1.00
O5013  O     1.16119   1.22168   0.07932   0.00000  Uiso   1.00
C5014  C     0.80629   0.76915   0.66348   0.00000  Uiso   1.00
O5015  O     0.80143   0.75148   0.67164   0.00000  Uiso   1.00
O5016  O     0.81090   0.78709   0.65543   0.00000  Uiso   1.00
C5017  C     0.61498   1.11785   0.11836   0.00000  Uiso   1.00
O5018  O     0.62480   1.12650   0.13320   0.00000  Uiso   1.00
O5019  O     0.60466   1.10914   0.10343   0.00000  Uiso   1.00
C5020  C     0.26001   0.83583   0.32814   0.00000  Uiso   1.00
O5021  O     0.24442   0.83024   0.33876   0.00000  Uiso   1.00
O5022  O     0.27581   0.84302   0.31788   0.00000  Uiso   1.00
C5023  C     0.01047   0.26192   0.63722   0.00000  Uiso   1.00
O5024  O     0.01691   0.28008   0.63286   0.00000  Uiso   1.00
O5025  O     0.00669   0.24258   0.64086   0.00000  Uiso   1.00
C5026  C     0.68399  -0.09689   0.96194   0.00000  Uiso   1.00
O5027  O     0.66410  -0.09869   0.96406   0.00000  Uiso   1.00
O5028  O     0.70367  -0.09422   0.96051   0.00000  Uiso   1.00
C5029  C     0.39129   0.69578  -0.02807   0.00000  Uiso   1.00
O5030  O     0.40248   0.68133  -0.03738   0.00000  Uiso   1.00
O5031  O     0.37990   0.70934  -0.01939   0.00000  Uiso   1.00
C5032  C     0.88897   0.91870   0.37969   0.00000  Uiso   1.00
O5033  O     0.87738   0.93363   0.37359   0.00000  Uiso   1.00
O5034  O     0.90074   0.90351   0.38519   0.00000  Uiso   1.00
C5035  C     0.58959   0.90198   0.20135   0.00000  Uiso   1.00
O5036  O     0.57564   0.90234   0.18732   0.00000  Uiso   1.00
O5037  O     0.60341   0.90083   0.21523   0.00000  Uiso   1.00
C5038  C     0.60391   0.93332   0.55317   0.00000  Uiso   1.00
O5039  O     0.59255   0.92332   0.56629   0.00000  Uiso   1.00
O5040  O     0.61456   0.94380   0.53973   0.00000  Uiso   1.00
C5041  C     1.08189   0.60029   0.92815   0.00000  Uiso   1.00
O5042  O     1.09545   0.60970   0.93970   0.00000  Uiso   1.00
O5043  O     1.06839   0.59207   0.91626   0.00000  Uiso   1.00
C5044  C     0.69023   1.06466   0.71011   0.00000  Uiso   1.00
O5045  O     0.70281   1.05267   0.70002   0.00000  Uiso   1.00
O5046  O     0.67843   1.07552   0.72177   0.00000  Uiso   1.00
C5047  C     0.74187   0.27902   0.00643   0.00000  Uiso   1.00
O5048  O     0.73902   0.27447  -0.01274   0.00000  Uiso   1.00
O5049  O     0.74434   0.28444   0.02559   0.00000  Uiso   1.00
C5050  C     0.40289   0.87232   0.22763   0.00000  Uiso   1.00
O5051  O     0.38635   0.86184   0.22325   0.00000  Uiso   1.00
O5052  O     0.41939   0.88294   0.23152   0.00000  Uiso   1.00
C5053  C     0.99062   0.54454   0.22656   0.00000  Uiso   1.00
O5054  O     0.99992   0.53061   0.23766   0.00000  Uiso   1.00
O5055  O     0.98088   0.55782   0.21532   0.00000  Uiso   1.00
C5056  C     0.62247   1.00801   0.66707   0.00000  Uiso   1.00
O5057  O     0.61760   1.02693   0.66292   0.00000  Uiso   1.00
O5058  O     0.62606   0.98876   0.67156   0.00000  Uiso   1.00
C5059  C     0.15729   0.34859   0.88016   0.00000  Uiso   1.00
O5060  O     0.13800   0.35067   0.87676   0.00000  Uiso   1.00
O5061  O     0.17655   0.34566   0.88208   0.00000  Uiso   1.00
C5062  C     0.04985   1.09722   0.00484   0.00000  Uiso   1.00
O5063  O     0.06852   1.09449  -0.00187   0.00000  Uiso   1.00
O5064  O     0.03094   1.10056   0.01079   0.00000  Uiso   1.00
C5065  C     0.81057   0.38706   0.72369   0.00000  Uiso   1.00
O5066  O     0.83026   0.38511   0.71933   0.00000  Uiso   1.00
O5067  O     0.79158   0.38854   0.72979   0.00000  Uiso   1.00
C5068  C     0.25826   0.81600   0.71837   0.00000  Uiso   1.00
O5069  O     0.23867   0.81887   0.71537   0.00000  Uiso   1.00
O5070  O     0.27755   0.81186   0.71844   0.00000  Uiso   1.00
C5071  C     0.63815   0.18800   0.33486   0.00000  Uiso   1.00
O5072  O     0.62810   0.18907   0.31772   0.00000  Uiso   1.00
O5073  O     0.64915   0.18761   0.35154   0.00000  Uiso   1.00
C5074  C     0.86520   0.41427   0.61794   0.00000  Uiso   1.00
O5075  O     0.86335   0.40621   0.63599   0.00000  Uiso   1.00
O5076  O     0.86865   0.42205   0.59987   0.00000  Uiso   1.00
C5077  C     0.66269   0.46804   0.13957   0.00000  Uiso   1.00
O5078  O     0.65884   0.45286   0.15180   0.00000  Uiso   1.00
O5079  O     0.66518   0.48375   0.12751   0.00000  Uiso   1.00
C5080  C     0.39153   0.65046   0.07414   0.00000  Uiso   1.00
O5081  O     0.38530   0.63261   0.06798   0.00000  Uiso   1.00
O5082  O     0.39953   0.66767   0.08036   0.00000  Uiso   1.00
C5083  C     0.95651   0.33862   0.77728   0.00000  Uiso   1.00
O5084  O     0.93850   0.34290   0.78415   0.00000  Uiso   1.00
O5085  O     0.97584   0.33672   0.77140   0.00000  Uiso   1.00
C5086  C     0.44446   0.00296   0.74946   0.00000  Uiso   1.00
O5087  O     0.44570   0.01452   0.76557   0.00000  Uiso   1.00
O5088  O     0.44230  -0.00851   0.73330   0.00000  Uiso   1.00
C5089  C     0.93480   0.41744   0.76304   0.00000  Uiso   1.00
O5090  O     0.92976   0.41673   0.78223   0.00000  Uiso   1.00
O5091  O     0.93909   0.41721   0.74343   0.00000  Uiso   1.00
C5092  C     0.72502   0.22591   0.38050   0.00000  Uiso   1.00
O5093  O     0.71583   0.21737   0.39608   0.00000  Uiso   1.00
O5094  O     0.73413   0.23628   0.36631   0.00000  Uiso   1.00
C5095  C     0.36692   0.15499  -0.04609   0.00000  Uiso   1.00
O5096  O     0.35918   0.14791  -0.06334   0.00000  Uiso   1.00
O5097  O     0.37487   0.16178  -0.02926   0.00000  Uiso   1.00
C5098  C     0.18166  -0.02537   0.78329   0.00000  Uiso   1.00
O5099  O     0.16524  -0.01747   0.79152   0.00000  Uiso   1.00
O5100  O     0.19830  -0.03145   0.77409   0.00000  Uiso   1.00
C5101  C    -0.06811   0.38375   1.24843   0.00000  Uiso   1.00
O5102  O    -0.08498   0.38157   1.23822   0.00000  Uiso   1.00
O5103  O    -0.05089   0.38554   1.25863   0.00000  Uiso   1.00
C5104  C    -0.05853   1.13545   0.88654   0.00000  Uiso   1.00
O5105  O    -0.06965   1.15195   0.88335   0.00000  Uiso   1.00
O5106  O    -0.04695   1.11936   0.88861   0.00000  Uiso   1.00
C5107  C    -0.16348   0.74971   0.52054   0.00000  Uiso   1.00
O5108  O    -0.17128   0.73365   0.52872   0.00000  Uiso   1.00
O5109  O    -0.15495   0.76560   0.51286   0.00000  Uiso   1.00
C5110  C     0.24099   0.73307   0.26967   0.00000  Uiso   1.00
O5111  O     0.24927   0.73850   0.25209   0.00000  Uiso   1.00
O5112  O     0.23253   0.72735   0.28645   0.00000  Uiso   1.00
C5113  C     0.36702   0.62669   0.96132   0.00000  Uiso   1.00
O5114  O     0.37001   0.61038   0.97287   0.00000  Uiso   1.00
O5115  O     0.36411   0.64332   0.95052   0.00000  Uiso   1.00
C5116  C     0.37812   0.10374   1.07125   0.00000  Uiso   1.00
O5117  O     0.37825   0.10300   1.09147   0.00000  Uiso   1.00
O5118  O     0.37911   0.10244   1.05099   0.00000  Uiso   1.00
C5119  C     0.03466   0.45937   0.46836   0.00000  Uiso   1.00
O5120  O     0.02551   0.45184   0.48397   0.00000  Uiso   1.00
O5121  O     0.04406   0.46729   0.45294   0.00000  Uiso   1.00
C5122  C     0.19338   0.57230   0.93925   0.00000  Uiso   1.00
O5123  O     0.19208   0.57230   0.91941   0.00000  Uiso   1.00
O5124  O     0.19310   0.57291   0.95905   0.00000  Uiso   1.00
C5125  C     0.24586   0.93831   0.52811   0.00000  Uiso   1.00
O5126  O     0.25086   0.94770   0.51196   0.00000  Uiso   1.00
O5127  O     0.23938   0.92713   0.54326   0.00000  Uiso   1.00
C5128  C     0.54703   0.53496   0.11497   0.00000  Uiso   1.00
O5129  O     0.53355   0.54925   0.11114   0.00000  Uiso   1.00
O5130  O     0.56144   0.52137   0.11807   0.00000  Uiso   1.00
C5131  C     1.02107   0.66752   0.72790   0.00000  Uiso   1.00
O5132  O     1.00496   0.67720   0.72080   0.00000  Uiso   1.00
O5133  O     1.03599   0.65642   0.73539   0.00000  Uiso   1.00
C5134  C     0.60397   0.60092   0.90092   0.00000  Uiso   1.00
O5135  O     0.59344   0.59508   0.91670   0.00000  Uiso   1.00
O5136  O     0.61442   0.60527   0.88447   0.00000  Uiso   1.00
C5137  C     0.49290   0.04685   1.16343   0.00000  Uiso   1.00
O5138  O     0.49431   0.04698   1.18347   0.00000  Uiso   1.00
O5139  O     0.49062   0.04663   1.14373   0.00000  Uiso   1.00
C5140  C     0.18905  -0.15859   0.38736   0.00000  Uiso   1.00
O5141  O     0.19882  -0.17193   0.37637   0.00000  Uiso   1.00
O5142  O     0.17920  -0.14579   0.39888   0.00000  Uiso   1.00
C5143  C     0.82683   0.04534   0.08072   0.00000  Uiso   1.00
O5144  O     0.84192   0.05188   0.09188   0.00000  Uiso   1.00
O5145  O     0.81048   0.03882   0.07115   0.00000  Uiso   1.00
C5146  C     0.78942   0.72407   0.91567   0.00000  Uiso   1.00
O5147  O     0.77612   0.72241   0.93035   0.00000  Uiso   1.00
O5148  O     0.80356   0.72552   0.90188   0.00000  Uiso   1.00
C5149  C     1.02818   0.98478  -0.29578   0.00000  Uiso   1.00
O5150  O     1.02779   0.99417  -0.27785   0.00000  Uiso   1.00
O5151  O     1.02797   0.97461  -0.31405   0.00000  Uiso   1.00
C5152  C     0.55519   0.46878   0.91171   0.00000  Uiso   1.00
O5153  O     0.57139   0.47261   0.90042   0.00000  Uiso   1.00
O5154  O     0.53881   0.46695   0.92358   0.00000  Uiso   1.00
C5155  C    -0.20461   1.08069   0.61664   0.00000  Uiso   1.00
O5156  O    -0.19827   1.07141   0.59969   0.00000  Uiso   1.00
O5157  O    -0.21149   1.08959   0.63277   0.00000  Uiso   1.00
C5158  C     0.14375   0.26272   0.62681   0.00000  Uiso   1.00
O5159  O     0.14628   0.24326   0.63029   0.00000  Uiso   1.00
O5160  O     0.14118   0.28218   0.62371   0.00000  Uiso   1.00
C5161  C     1.09771   0.38777   0.50559   0.00000  Uiso   1.00
O5162  O     1.11352   0.38294   0.51610   0.00000  Uiso   1.00
O5163  O     1.08147   0.39094   0.49486   0.00000  Uiso   1.00
C5164  C     0.21833   0.62154   0.18103   0.00000  Uiso   1.00
O5165  O     0.20617   0.63620   0.17495   0.00000  Uiso   1.00
O5166  O     0.23097   0.60725   0.18672   0.00000  Uiso   1.00
C5167  C     0.20958   0.15587   0.73051   0.00000  Uiso   1.00
O5168  O     0.19801   0.14224   0.72196   0.00000  Uiso   1.00
O5169  O     0.22267   0.16961   0.73960   0.00000  Uiso   1.00
C5170  C     0.76738  -0.12141  -0.30728   0.00000  Uiso   1.00
O5171  O     0.75350  -0.11666  -0.29355   0.00000  Uiso   1.00
O5172  O     0.78072  -0.12542  -0.32163   0.00000  Uiso   1.00
C5173  C     0.00582   0.73391   0.66682   0.00000  Uiso   1.00
O5174  O     0.00240   0.71902   0.68011   0.00000  Uiso   1.00
O5175  O     0.00803   0.74882   0.65386   0.00000  Uiso   1.00
C5176  C     0.97423   0.31869   0.63562   0.00000  Uiso   1.00
O5177  O     0.99291   0.32389   0.63133   0.00000  Uiso   1.00
O5178  O     0.95529   0.31298   0.63989   0.00000  Uiso   1.00
C5179  C     0.58710  -0.03433   0.36880   0.00000  Uiso   1.00
O5180  O     0.57664  -0.02928   0.38526   0.00000  Uiso   1.00
O5181  O     0.59751  -0.03967   0.35222   0.00000  Uiso   1.00
C5182  C     0.28946   0.23414  -0.08835   0.00000  Uiso   1.00
O5183  O     0.27656   0.24152  -0.10167   0.00000  Uiso   1.00
O5184  O     0.30128   0.22580  -0.07454   0.00000  Uiso   1.00
C5185  C    -0.16427   0.05279   0.43277   0.00000  Uiso   1.00
O5186  O    -0.18351   0.04539   0.43326   0.00000  Uiso   1.00
O5187  O    -0.14599   0.06170   0.43315   0.00000  Uiso   1.00
C5188  C    -0.15011  -0.07584   0.62598   0.00000  Uiso   1.00
O5189  O    -0.16449  -0.08959   0.62989   0.00000  Uiso   1.00
O5190  O    -0.13555  -0.06256   0.62165   0.00000  Uiso   1.00
C5191  C     0.68661   0.31934   0.91192   0.00000  Uiso   1.00
O5192  O     0.67876   0.31615   0.89370   0.00000  Uiso   1.00
O5193  O     0.69359   0.32140   0.93040   0.00000  Uiso   1.00
C5194  C     0.59973   0.25906   0.98872   0.00000  Uiso   1.00
O5195  O     0.61921   0.26144   0.99381   0.00000  Uiso   1.00
O5196  O     0.58086   0.25619   0.98230   0.00000  Uiso   1.00
C5197  C     0.36997  -0.16344   0.89062   0.00000  Uiso   1.00
O5198  O     0.36908  -0.15050   0.90566   0.00000  Uiso   1.00
O5199  O     0.37185  -0.17680   0.87582   0.00000  Uiso   1.00
C5200  C    -0.14861   0.70463   0.76726   0.00000  Uiso   1.00
O5201  O    -0.16810   0.70174   0.77007   0.00000  Uiso   1.00
O5202  O    -0.12880   0.70655   0.76336   0.00000  Uiso   1.00
C5203  C     0.39209   0.31432   0.90283   0.00000  Uiso   1.00
O5204  O     0.38651   0.32208   0.91977   0.00000  Uiso   1.00
O5205  O     0.39697   0.30550   0.88555   0.00000  Uiso   1.00
C5206  C     1.36729   1.15148   0.12637   0.00000  Uiso   1.00
O5207  O     1.35411   1.16507   0.13318   0.00000  Uiso   1.00
O5208  O     1.37993   1.13693   0.11973   0.00000  Uiso   1.00
C5209  C     0.38967   1.10260   0.78885   0.00000  Uiso   1.00
O5210  O     0.39376   1.08295   0.79191   0.00000  Uiso   1.00
O5211  O     0.38532   1.12172   0.78418   0.00000  Uiso   1.00
C5212  C    -0.10698   0.77073   0.12497   0.00000  Uiso   1.00
O5213  O    -0.12345   0.76922   0.13678   0.00000  Uiso   1.00
O5214  O    -0.09142   0.77286   0.11311   0.00000  Uiso   1.00
C5215  C     1.16559   0.64061   0.02361   0.00000  Uiso   1.00
O5216  O     1.16647   0.62528   0.01112   0.00000  Uiso   1.00
O5217  O     1.16550   0.65538   0.03763   0.00000  Uiso   1.00
C5218  C     0.95270   0.46519   0.87403   0.00000  Uiso   1.00
O5219  O     0.93623   0.47399   0.87952   0.00000  Uiso   1.00
O5220  O     0.96992   0.45638   0.86984   0.00000  Uiso   1.00
C5221  C     0.01539   0.06455   0.95843   0.00000  Uiso   1.00
O5222  O     0.00704   0.07940   0.96918   0.00000  Uiso   1.00
O5223  O     0.02477   0.05140   0.94672   0.00000  Uiso   1.00
C5224  C     1.02119   0.54936   0.49201   0.00000  Uiso   1.00
O5225  O     1.02495   0.55368   0.47280   0.00000  Uiso   1.00
O5226  O     1.01736   0.54565   0.51147   0.00000  Uiso   1.00
C5227  C     0.22587   0.26413  -0.00123   0.00000  Uiso   1.00
O5228  O     0.23390   0.28088  -0.00849   0.00000  Uiso   1.00
O5229  O     0.22033   0.24687   0.00668   0.00000  Uiso   1.00
C5230  C     1.16057   0.99561   0.55776   0.00000  Uiso   1.00
O5231  O     1.15698   0.99391   0.53851   0.00000  Uiso   1.00
O5232  O     1.16459   0.99897   0.57641   0.00000  Uiso   1.00
C5233  C     0.28833   0.10837   0.53195   0.00000  Uiso   1.00
O5234  O     0.29545   0.10636   0.55060   0.00000  Uiso   1.00
O5235  O     0.28126   0.11029   0.51347   0.00000  Uiso   1.00
C5236  C     0.37543   1.12033  -0.14683   0.00000  Uiso   1.00
O5237  O     0.35655   1.11700  -0.15270   0.00000  Uiso   1.00
O5238  O     0.39397   1.12238  -0.14016   0.00000  Uiso   1.00
C5239  C     0.07717   0.39801   0.43787   0.00000  Uiso   1.00
O5240  O     0.07924   0.41699   0.43364   0.00000  Uiso   1.00
O5241  O     0.07532   0.37935   0.44317   0.00000  Uiso   1.00
C5242  C     1.27222   0.78716   0.91051   0.00000  Uiso   1.00
O5243  O     1.27492   0.79117   0.92971   0.00000  Uiso   1.00
O5244  O     1.26814   0.78364   0.89129   0.00000  Uiso   1.00
C5245  C     0.29904   0.20740   0.41216   0.00000  Uiso   1.00
O5246  O     0.27992   0.21003   0.41715   0.00000  Uiso   1.00
O5247  O     0.31803   0.20357   0.40793   0.00000  Uiso   1.00
C5248  C     0.14849   0.32715   0.51065   0.00000  Uiso   1.00
O5249  O     0.15629   0.31104   0.50264   0.00000  Uiso   1.00
O5250  O     0.14068   0.34358   0.51925   0.00000  Uiso   1.00
C5251  C     0.92284   0.57982   0.51705   0.00000  Uiso   1.00
O5252  O     0.90363   0.57524   0.51894   0.00000  Uiso   1.00
O5253  O     0.94179   0.58488   0.51452   0.00000  Uiso   1.00
C5254  C     0.24410   0.86866   0.08082   0.00000  Uiso   1.00
O5255  O     0.25391   0.88604   0.07906   0.00000  Uiso   1.00
O5256  O     0.23520   0.85107   0.08296   0.00000  Uiso   1.00
C5257  C    -0.02694   0.19395   0.26766   0.00000  Uiso   1.00
O5258  O    -0.02663   0.17951   0.28108   0.00000  Uiso   1.00
O5259  O    -0.02766   0.20840   0.25433   0.00000  Uiso   1.00
C5260  C     0.47996   0.84806  -0.11242   0.00000  Uiso   1.00
O5261  O     0.48111   0.84786  -0.09261   0.00000  Uiso   1.00
O5262  O     0.47832   0.84819  -0.13227   0.00000  Uiso   1.00
C5263  C     0.33061   0.85765   0.74497   0.00000  Uiso   1.00
O5264  O     0.31712   0.84693   0.75510   0.00000  Uiso   1.00
O5265  O     0.34461   0.86821   0.73550   0.00000  Uiso   1.00
C5266  C     0.85064   0.99827   0.03539   0.00000  Uiso   1.00
O5267  O     0.86408   0.99454   0.05001   0.00000  Uiso   1.00
O5268  O     0.83681   1.00118   0.02089   0.00000  Uiso   1.00
C5269  C     0.20829   0.39328  -0.01891   0.00000  Uiso   1.00
O5270  O     0.22475   0.39401  -0.00774   0.00000  Uiso   1.00
O5271  O     0.19251   0.39241  -0.03039   0.00000  Uiso   1.00
C5272  C     0.01847   0.13201   0.47134   0.00000  Uiso   1.00
O5273  O     0.03491   0.14067   0.47893   0.00000  Uiso   1.00
O5274  O     0.00295   0.12254   0.46378   0.00000  Uiso   1.00
C5275  C     0.48876  -0.02468   0.36710   0.00000  Uiso   1.00
O5276  O     0.50558  -0.02487   0.37823   0.00000  Uiso   1.00
O5277  O     0.47137  -0.02526   0.35692   0.00000  Uiso   1.00
C5278  C     0.22121   0.18907   0.53461   0.00000  Uiso   1.00
O5279  O     0.23514   0.18355   0.54774   0.00000  Uiso   1.00
O5280  O     0.20677   0.19463   0.52209   0.00000  Uiso   1.00
C5281  C     0.88594   0.77130   0.56114   0.00000  Uiso   1.00
O5282  O     0.90095   0.77791   0.54994   0.00000  Uiso   1.00
O5283  O     0.87092   0.76378   0.57227   0.00000  Uiso   1.00
C5284  C     0.15056  -0.00462   0.28445   0.00000  Uiso   1.00
O5285  O     0.14197  -0.01201   0.30071   0.00000  Uiso   1.00
O5286  O     0.15814   0.00294   0.26754   0.00000  Uiso   1.00
C5287  C     0.08751   0.52699   0.49578   0.00000  Uiso   1.00
O5288  O     0.08535   0.53892   0.48060   0.00000  Uiso   1.00
O5289  O     0.08832   0.51528   0.51122   0.00000  Uiso   1.00
C5290  C     0.74562   0.88577   0.46365   0.00000  Uiso   1.00
O5291  O     0.76273   0.88631   0.47408   0.00000  Uiso   1.00
O5292  O     0.72844   0.88576   0.45381   0.00000  Uiso   1.00
C5293  C     0.81381   0.60313   0.18269   0.00000  Uiso   1.00
O5294  O     0.81252   0.58957   0.19749   0.00000  Uiso   1.00
O5295  O     0.81451   0.61774   0.16846   0.00000  Uiso   1.00
C5296  C    -0.15675   0.23808   0.81849   0.00000  Uiso   1.00
O5297  O    -0.13719   0.23604   0.81929   0.00000  Uiso   1.00
O5298  O    -0.17664   0.24126   0.81683   0.00000  Uiso   1.00
C5299  C     0.20467  -0.21534   0.34698   0.00000  Uiso   1.00
O5300  O     0.21446  -0.22114   0.36360   0.00000  Uiso   1.00
O5301  O     0.19444  -0.20970   0.33091   0.00000  Uiso   1.00
C5302  C     0.73920   0.43422   1.00900   0.00000  Uiso   1.00
O5303  O     0.75319   0.42584   0.99768   0.00000  Uiso   1.00
O5304  O     0.72533   0.44186   1.02111   0.00000  Uiso   1.00
C5305  C     0.42941   0.39177   0.12096   0.00000  Uiso   1.00
O5306  O     0.41810   0.38335   0.13496   0.00000  Uiso   1.00
O5307  O     0.43939   0.40145   0.10693   0.00000  Uiso   1.00
C5308  C     0.81035   0.40831  -0.00774   0.00000  Uiso   1.00
O5309  O     0.81539   0.41465   0.01005   0.00000  Uiso   1.00
O5310  O     0.80583   0.40332  -0.02657   0.00000  Uiso   1.00
C5311  C     0.49925   0.17328   0.66811   0.00000  Uiso   1.00
O5312  O     0.50077   0.18450   0.68437   0.00000  Uiso   1.00
O5313  O     0.49713   0.16298   0.65065   0.00000  Uiso   1.00
C5314  C     0.34056   0.88548   0.36367   0.00000  Uiso   1.00
O5315  O     0.35765   0.89477   0.35931   0.00000  Uiso   1.00
O5316  O     0.32388   0.87517   0.36781   0.00000  Uiso   1.00
C5317  C     0.20146   0.10690   0.05394   0.00000  Uiso   1.00
O5318  O     0.19806   0.08683   0.05594   0.00000  Uiso   1.00
O5319  O     0.20469   0.12672   0.05211   0.00000  Uiso   1.00
C5320  C     0.73648   0.72668   1.20775   0.00000  Uiso   1.00
O5321  O     0.72731   0.73687   1.22193   0.00000  Uiso   1.00
O5322  O     0.74633   0.71546   1.19429   0.00000  Uiso   1.00
C5323  C     0.54248   0.63682   0.88707   0.00000  Uiso   1.00
O5324  O     0.56262   0.63484   0.88661   0.00000  Uiso   1.00
O5325  O     0.52230   0.63854   0.88720   0.00000  Uiso   1.00
C5326  C     0.26303   0.34351   0.02264   0.00000  Uiso   1.00
O5327  O     0.27323   0.33939   0.03929   0.00000  Uiso   1.00
O5328  O     0.25221   0.34757   0.00628   0.00000  Uiso   1.00
C5329  C    -0.13197   0.62690   0.58528   0.00000  Uiso   1.00
O5330  O    -0.13660   0.62141   0.60376   0.00000  Uiso   1.00
O5331  O    -0.12743   0.63264   0.56676   0.00000  Uiso   1.00
C5332  C     0.97509   0.57114   0.88761   0.00000  Uiso   1.00
O5333  O     0.97063   0.58014   0.87046   0.00000  Uiso   1.00
O5334  O     0.97865   0.56164   0.90464   0.00000  Uiso   1.00
C5335  C     0.53152  -0.21122   0.08006   0.00000  Uiso   1.00
O5336  O     0.53316  -0.22634   0.09343   0.00000  Uiso   1.00
O5337  O     0.53050  -0.19630   0.06663   0.00000  Uiso   1.00
C5338  C    -0.09937   0.88918  -0.03971   0.00000  Uiso   1.00
O5339  O    -0.08508   0.87623  -0.03446   0.00000  Uiso   1.00
O5340  O    -0.11436   0.90165  -0.04415   0.00000  Uiso   1.00
C5341  C     0.88933   0.37496   0.98963   0.00000  Uiso   1.00
O5342  O     0.87564   0.38900   0.98558   0.00000  Uiso   1.00
O5343  O     0.90277   0.36013   0.99152   0.00000  Uiso   1.00
C5344  C     0.27637   0.26998   0.28192   0.00000  Uiso   1.00
O5345  O     0.26826   0.27303   0.26389   0.00000  Uiso   1.00
O5346  O     0.28474   0.26646   0.29971   0.00000  Uiso   1.00
C5347  C     0.54391   0.88626   0.05973   0.00000  Uiso   1.00
O5348  O     0.53471   0.88539   0.07748   0.00000  Uiso   1.00
O5349  O     0.55363   0.88703   0.04228   0.00000  Uiso   1.00
C5350  C     0.43100   1.00481   1.03889   0.00000  Uiso   1.00
O5351  O     0.41680   1.00927   1.05203   0.00000  Uiso   1.00
O5352  O     0.44616   1.00089   1.02660   0.00000  Uiso   1.00
C5353  C     0.41722   0.84835   0.74811   0.00000  Uiso   1.00
O5354  O     0.41603   0.84404   0.72881   0.00000  Uiso   1.00
O5355  O     0.41873   0.85260   0.76783   0.00000  Uiso   1.00
C5356  C     0.40136   0.70478   0.04300   0.00000  Uiso   1.00
O5357  O     0.41878   0.70238   0.03316   0.00000  Uiso   1.00
O5358  O     0.38405   0.70703   0.05215   0.00000  Uiso   1.00
C5359  C     0.33457   0.89190   0.81127   0.00000  Uiso   1.00
O5360  O     0.32367   0.87748   0.80394   0.00000  Uiso   1.00
O5361  O     0.34697   0.90667   0.81777   0.00000  Uiso   1.00
C5362  C     0.96380   0.29955   0.42969   0.00000  Uiso   1.00
O5363  O     0.94947   0.31322   0.43066   0.00000  Uiso   1.00
O5364  O     0.97783   0.28520   0.42818   0.00000  Uiso   1.00
C5365  C     0.13665   0.40771   0.35977   0.00000  Uiso   1.00
O5366  O     0.14643   0.42370   0.35272   0.00000  Uiso   1.00
O5367  O     0.12532   0.39303   0.36738   0.00000  Uiso   1.00
C5368  C     0.52549   0.26831   0.87744   0.00000  Uiso   1.00
O5369  O     0.50723   0.26585   0.86935   0.00000  Uiso   1.00
O5370  O     0.54360   0.27049   0.88599   0.00000  Uiso   1.00
C5371  C     0.60090   0.10440   0.81060   0.00000  Uiso   1.00
O5372  O     0.58604   0.11603   0.80503   0.00000  Uiso   1.00
O5373  O     0.61527   0.09200   0.81622   0.00000  Uiso   1.00
C5374  C     0.88932   0.81690   0.43317   0.00000  Uiso   1.00
O5375  O     0.88731   0.80617   0.44974   0.00000  Uiso   1.00
O5376  O     0.88998   0.82775   0.41647   0.00000  Uiso   1.00
C5377  C     0.79837   0.93038   0.59842   0.00000  Uiso   1.00
O5378  O     0.79481   0.91316   0.58904   0.00000  Uiso   1.00
O5379  O     0.80219   0.94708   0.60839   0.00000  Uiso   1.00
C5380  C     0.25597   0.19601   1.04061   0.00000  Uiso   1.00
O5381  O     0.25406   0.18090   1.05296   0.00000  Uiso   1.00
O5382  O     0.25935   0.21025   1.02758   0.00000  Uiso   1.00
C5383  C     0.16159   0.09930   0.68138   0.00000  Uiso   1.00
O5384  O     0.15166   0.10517   0.66522   0.00000  Uiso   1.00
O5385  O     0.17077   0.09367   0.69828   0.00000  Uiso   1.00
C5386  C     0.20731   0.70986   0.17642   0.00000  Uiso   1.00
O5387  O     0.22053   0.72140   0.16877   0.00000  Uiso   1.00
O5388  O     0.19447   0.69803   0.18458   0.00000  Uiso   1.00
C5389  C     0.16301   0.61312  -0.14913   0.00000  Uiso   1.00
O5390  O     0.16124   0.62048  -0.16746   0.00000  Uiso   1.00
O5391  O     0.16408   0.60650  -0.13045   0.00000  Uiso   1.00
C5392  C    -0.08391  -0.24653   0.40933   0.00000  Uiso   1.00
O5393  O    -0.06650  -0.24736   0.42085   0.00000  Uiso   1.00
O5394  O    -0.10097  -0.24507   0.39906   0.00000  Uiso   1.00
C5395  C     1.04446   0.10456   0.17373   0.00000  Uiso   1.00
O5396  O     1.05791   0.11933   0.17493   0.00000  Uiso   1.00
O5397  O     1.03150   0.08956   0.17365   0.00000  Uiso   1.00
C5398  C     0.89373   0.53303   0.73550   0.00000  Uiso   1.00
O5399  O     0.88919   0.52911   0.75446   0.00000  Uiso   1.00
O5400  O     0.89763   0.53690   0.71626   0.00000  Uiso   1.00
C5401  C     0.86250   0.62201   0.67556   0.00000  Uiso   1.00
O5402  O     0.86107   0.60361   0.66883   0.00000  Uiso   1.00
O5403  O     0.86179   0.64096   0.68188   0.00000  Uiso   1.00
C5404  C     0.02867   0.72918   0.26560   0.00000  Uiso   1.00
O5405  O     0.04582   0.71977   0.27075   0.00000  Uiso   1.00
O5406  O     0.01285   0.74017   0.26024   0.00000  Uiso   1.00
C5407  C     0.22014   0.21816   0.94501   0.00000  Uiso   1.00
O5408  O     0.22963   0.23374   0.95219   0.00000  Uiso   1.00
O5409  O     0.21064   0.20209   0.93806   0.00000  Uiso   1.00
C5410  C     0.72838   0.93581   0.08555   0.00000  Uiso   1.00
O5411  O     0.72857   0.91592   0.08416   0.00000  Uiso   1.00
O5412  O     0.72799   0.95606   0.08762   0.00000  Uiso   1.00
C5413  C     0.89423   0.04147   0.73626   0.00000  Uiso   1.00
O5414  O     0.88226   0.05474   0.72762   0.00000  Uiso   1.00
O5415  O     0.90657   0.02850   0.74504   0.00000  Uiso   1.00
C5416  C     0.58822   0.47925   0.98268   0.00000  Uiso   1.00
O5417  O     0.56971   0.48715   0.98156   0.00000  Uiso   1.00
O5418  O     0.60656   0.47200   0.98352   0.00000  Uiso   1.00
C5419  C     0.95550   0.95609   0.35102   0.00000  Uiso   1.00
O5420  O     0.96323   0.97388   0.35546   0.00000  Uiso   1.00
O5421  O     0.94764   0.93838   0.34665   0.00000  Uiso   1.00
C5422  C     0.44047   0.92264   1.03379   0.00000  Uiso   1.00
O5423  O     0.44167   0.94166   1.03890   0.00000  Uiso   1.00
O5424  O     0.43868   0.90332   1.02961   0.00000  Uiso   1.00
C5425  C     0.86891   0.62506   0.79243   0.00000  Uiso   1.00
O5426  O     0.87443   0.62050   0.77405   0.00000  Uiso   1.00
O5427  O     0.86164   0.62892   0.81026   0.00000  Uiso   1.00
C5428  C     0.52729   0.52884   0.04494   0.00000  Uiso   1.00
O5429  O     0.54082   0.53293   0.05916   0.00000  Uiso   1.00
O5430  O     0.51458   0.52562   0.03033   0.00000  Uiso   1.00
C5431  C     0.58826  -0.05343   0.70934   0.00000  Uiso   1.00
O5432  O     0.60322  -0.04161   0.70573   0.00000  Uiso   1.00
O5433  O     0.57223  -0.06550   0.71408   0.00000  Uiso   1.00
C5434  C     1.03599   0.39105   0.60144   0.00000  Uiso   1.00
O5435  O     1.05468   0.39813   0.59953   0.00000  Uiso   1.00
O5436  O     1.01719   0.38470   0.60417   0.00000  Uiso   1.00
C5437  C     0.10206   0.27120   0.45275   0.00000  Uiso   1.00
O5438  O     0.10973   0.28962   0.45262   0.00000  Uiso   1.00
O5439  O     0.09348   0.25317   0.45213   0.00000  Uiso   1.00
C5440  C     0.67855   0.90655   0.37927   0.00000  Uiso   1.00
O5441  O     0.68720   0.92354   0.37300   0.00000  Uiso   1.00
O5442  O     0.67040   0.89021   0.38618   0.00000  Uiso   1.00
C5443  C     0.04857   0.36388   0.67945   0.00000  Uiso   1.00
O5444  O     0.05971   0.37327   0.66515   0.00000  Uiso   1.00
O5445  O     0.03699   0.35641   0.69369   0.00000  Uiso   1.00
C5446  C     0.71629   0.62306   0.85321   0.00000  Uiso   1.00
O5447  O     0.70966   0.62573   0.83479   0.00000  Uiso   1.00
O5448  O     0.72194   0.61947   0.87168   0.00000  Uiso   1.00
C5449  C     0.03772   1.03007   0.65805   0.00000  Uiso   1.00
O5450  O     0.02675   1.01532   0.66561   0.00000  Uiso   1.00
O5451  O     0.04859   1.04501   0.65021   0.00000  Uiso   1.00
C5452  C     0.98549   0.81120   0.89518   0.00000  Uiso   1.00
O5453  O     0.97886   0.82621   0.88396   0.00000  Uiso   1.00
O5454  O     0.99382   0.79720   0.90653   0.00000  Uiso   1.00
C5455  C     0.23722   0.62564   1.09356   0.00000  Uiso   1.00
O5456  O     0.21767   0.62541   1.09049   0.00000  Uiso   1.00
O5457  O     0.25699   0.62513   1.09696   0.00000  Uiso   1.00
C5458  C     0.00720   0.56065   0.98199   0.00000  Uiso   1.00
O5459  O     0.00807   0.54738   0.96684   0.00000  Uiso   1.00
O5460  O     0.00735   0.57446   0.99675   0.00000  Uiso   1.00
C5461  C    -0.07744  -0.19216   0.90024   0.00000  Uiso   1.00
O5462  O    -0.06448  -0.20590   0.89229   0.00000  Uiso   1.00
O5463  O    -0.08934  -0.17724   0.90662   0.00000  Uiso   1.00
C5464  C     0.41701   1.13504   0.48051   0.00000  Uiso   1.00
O5465  O     0.40318   1.14799   0.47475   0.00000  Uiso   1.00
O5466  O     0.43131   1.12253   0.48647   0.00000  Uiso   1.00
C5467  C     0.91785   0.53797  -0.01407   0.00000  Uiso   1.00
O5468  O     0.91496   0.55446  -0.02470   0.00000  Uiso   1.00
O5469  O     0.92125   0.52147  -0.00395   0.00000  Uiso   1.00
C5470  C     0.83354   0.29641   0.84405   0.00000  Uiso   1.00
O5471  O     0.82451   0.29721   0.86178   0.00000  Uiso   1.00
O5472  O     0.84032   0.29697   0.82540   0.00000  Uiso   1.00
C5473  C     0.49960   0.09077   0.64147   0.00000  Uiso   1.00
O5474  O     0.48368   0.09495   0.62968   0.00000  Uiso   1.00
O5475  O     0.51535   0.08694   0.65333   0.00000  Uiso   1.00
C5476  C     0.63535   0.32150   0.14803   0.00000  Uiso   1.00
O5477  O     0.64469   0.30850   0.13598   0.00000  Uiso   1.00
O5478  O     0.62610   0.33551   0.15916   0.00000  Uiso   1.00
C5479  C    -0.02185   0.53663   0.15845   0.00000  Uiso   1.00
O5480  O    -0.01921   0.52053   0.14650   0.00000  Uiso   1.00
O5481  O    -0.02426   0.55262   0.16988   0.00000  Uiso   1.00
C5482  C     0.79452   0.22463   0.64346   0.00000  Uiso   1.00
O5483  O     0.80094   0.24290   0.64788   0.00000  Uiso   1.00
O5484  O     0.78569   0.20732   0.63803   0.00000  Uiso   1.00
C5485  C     0.65223   0.92696   0.75677   0.00000  Uiso   1.00
O5486  O     0.65148   0.90689   0.75651   0.00000  Uiso   1.00
O5487  O     0.65243   0.94684   0.75687   0.00000  Uiso   1.00
C5488  C     1.06245   0.68651   0.32840   0.00000  Uiso   1.00
O5489  O     1.07784   0.68509   0.31593   0.00000  Uiso   1.00
O5490  O     1.04752   0.68861   0.34167   0.00000  Uiso   1.00
C5491  C     0.43337   1.00048   1.21387   0.00000  Uiso   1.00
O5492  O     0.43709   1.01919   1.20817   0.00000  Uiso   1.00
O5493  O     0.43073   0.98172   1.22016   0.00000  Uiso   1.00
C5494  C     0.29626   0.45104   0.95918   0.00000  Uiso   1.00
O5495  O     0.29498   0.46888   0.95070   0.00000  Uiso   1.00
O5496  O     0.29762   0.43272   0.96682   0.00000  Uiso   1.00
C5497  C     0.41053   0.38177  -0.00537   0.00000  Uiso   1.00
O5498  O     0.40238   0.39583   0.00636   0.00000  Uiso   1.00
O5499  O     0.41879   0.36820  -0.01690   0.00000  Uiso   1.00
C5500  C     0.54522  -0.06743   0.53117   0.00000  Uiso   1.00
O5501  O     0.54569  -0.07135   0.51191   0.00000  Uiso   1.00
O5502  O     0.54468  -0.06328   0.55058   0.00000  Uiso   1.00
C5503  C     0.42438   0.48360   1.04328   0.00000  Uiso   1.00
O5504  O     0.41573   0.47647   1.02708   0.00000  Uiso   1.00
O5505  O     0.43355   0.49082   1.05904   0.00000  Uiso   1.00
C5506  C     0.67525   0.19611   0.83560   0.00000  Uiso   1.00
O5507  O     0.66428   0.20703   0.84816   0.00000  Uiso   1.00
O5508  O     0.68750   0.18448   0.82444   0.00000  Uiso   1.00
C5509  C     0.25262   0.85926   0.56386   0.00000  Uiso   1.00
O5510  O     0.23536   0.86804   0.56136   0.00000  Uiso   1.00
O5511  O     0.27028   0.85105   0.56591   0.00000  Uiso   1.00
C5512  C     0.75099   0.62001   0.92488   0.00000  Uiso   1.00
O5513  O     0.73495   0.63034   0.92980   0.00000  Uiso   1.00
O5514  O     0.76742   0.61005   0.91982   0.00000  Uiso   1.00
C5515  C     0.95948   0.70816   0.01034   0.00000  Uiso   1.00
O5516  O     0.96808   0.69406   0.02128   0.00000  Uiso   1.00
O5517  O     0.95150   0.72169  -0.00154   0.00000  Uiso   1.00
C5518  C     0.18244   0.15995   0.14026   0.00000  Uiso   1.00
O5519  O     0.16285   0.16175   0.13805   0.00000  Uiso   1.00
O5520  O     0.20189   0.15714   0.14268   0.00000  Uiso   1.00
C5521  C     0.50278   0.16265   0.35545   0.00000  Uiso   1.00
O5522  O     0.50367   0.16666   0.33629   0.00000  Uiso   1.00
O5523  O     0.50099   0.15790   0.37446   0.00000  Uiso   1.00
C5524  C     0.87423   0.47529   0.11867   0.00000  Uiso   1.00
O5525  O     0.86367   0.48825   0.10787   0.00000  Uiso   1.00
O5526  O     0.88518   0.46219   0.12881   0.00000  Uiso   1.00
C5527  C     0.19073  -0.18516   0.74361   0.00000  Uiso   1.00
O5528  O     0.19645  -0.18131   0.76247   0.00000  Uiso   1.00
O5529  O     0.18430  -0.18877   0.72507   0.00000  Uiso   1.00
C5530  C     0.93827   1.28155   0.77668   0.00000  Uiso   1.00
O5531  O     0.95683   1.28004   0.77019   0.00000  Uiso   1.00
O5532  O     0.91974   1.28313   0.78337   0.00000  Uiso   1.00
C5533  C     0.10721   0.30121   0.37579   0.00000  Uiso   1.00
O5534  O     0.09404   0.30333   0.36108   0.00000  Uiso   1.00
O5535  O     0.12091   0.29891   0.38972   0.00000  Uiso   1.00
C5536  C    -0.19107   1.07230   0.95320   0.00000  Uiso   1.00
O5537  O    -0.19283   1.07535   0.93328   0.00000  Uiso   1.00
O5538  O    -0.18992   1.06948   0.97296   0.00000  Uiso   1.00
C5539  C    -0.01516  -0.15448   0.36823   0.00000  Uiso   1.00
O5540  O    -0.01574  -0.15934   0.34892   0.00000  Uiso   1.00
O5541  O    -0.01409  -0.14960   0.38766   0.00000  Uiso   1.00
C5542  C     0.11144   0.93287   0.03287   0.00000  Uiso   1.00
O5543  O     0.09455   0.92298   0.03435   0.00000  Uiso   1.00
O5544  O     0.12900   0.94356   0.03327   0.00000  Uiso   1.00
C5545  C    -0.11427   0.16237   0.77925   0.00000  Uiso   1.00
O5546  O    -0.13322   0.15898   0.77366   0.00000  Uiso   1.00
O5547  O    -0.09592   0.16533   0.78618   0.00000  Uiso   1.00
C5548  C     0.87218   0.17208   0.30846   0.00000  Uiso   1.00
O5549  O     0.86364   0.18744   0.31755   0.00000  Uiso   1.00
O5550  O     0.88088   0.15624   0.30016   0.00000  Uiso   1.00
C5551  C     0.13216   0.99055   0.68907   0.00000  Uiso   1.00
O5552  O     0.13141   0.99544   0.66994   0.00000  Uiso   1.00
O5553  O     0.13243   0.98423   0.70781   0.00000  Uiso   1.00
C5554  C     0.38352   0.82140   0.25270   0.00000  Uiso   1.00
O5555  O     0.36379   0.82423   0.25168   0.00000  Uiso   1.00
O5556  O     0.40314   0.81856   0.25365   0.00000  Uiso   1.00
C5557  C     0.48537   0.87975   0.25109   0.00000  Uiso   1.00
O5558  O     0.47609   0.86368   0.24387   0.00000  Uiso   1.00
O5559  O     0.49431   0.89586   0.25851   0.00000  Uiso   1.00
C5560  C    -0.01512   0.47681   0.31434   0.00000  Uiso   1.00
O5561  O    -0.02105   0.49137   0.30243   0.00000  Uiso   1.00
O5562  O    -0.00878   0.46162   0.32670   0.00000  Uiso   1.00
C5563  C     0.28682   0.01757  -0.09636   0.00000  Uiso   1.00
O5564  O     0.30405   0.01383  -0.08853   0.00000  Uiso   1.00
O5565  O     0.26880   0.02149  -0.10468   0.00000  Uiso   1.00
C5566  C     0.81190   0.26786   0.00282   0.00000  Uiso   1.00
O5567  O     0.82283   0.25878  -0.01093   0.00000  Uiso   1.00
O5568  O     0.80084   0.27633   0.01689   0.00000  Uiso   1.00
C5569  C     0.46786   1.08819   0.25559   0.00000  Uiso   1.00
O5570  O     0.47215   1.07701   0.27167   0.00000  Uiso   1.00
O5571  O     0.46471   1.09991   0.23969   0.00000  Uiso   1.00
C5572  C     1.00545   0.12433   0.77191   0.00000  Uiso   1.00
O5573  O     0.98986   0.11245   0.77468   0.00000  Uiso   1.00
O5574  O     1.02129   0.13579   0.76724   0.00000  Uiso   1.00
C5575  C     0.83174   0.78766   0.44789   0.00000  Uiso   1.00
O5576  O     0.83316   0.78448   0.46775   0.00000  Uiso   1.00
O5577  O     0.82986   0.78958   0.42814   0.00000  Uiso   1.00
C5578  C     0.67634   0.62085   1.04154   0.00000  Uiso   1.00
O5579  O     0.68263   0.63777   1.04827   0.00000  Uiso   1.00
O5580  O     0.66784   0.60332   1.03637   0.00000  Uiso   1.00
C5581  C     0.06590   0.15860   0.05101   0.00000  Uiso   1.00
O5582  O     0.07652   0.14531   0.03975   0.00000  Uiso   1.00
O5583  O     0.05434   0.17186   0.06010   0.00000  Uiso   1.00
C5584  C     0.69294   0.60137   0.97286   0.00000  Uiso   1.00
O5585  O     0.68547   0.61620   0.98423   0.00000  Uiso   1.00
O5586  O     0.69913   0.58620   0.96141   0.00000  Uiso   1.00
C5587  C     0.17818  -0.17176   0.14257   0.00000  Uiso   1.00
O5588  O     0.19548  -0.16619   0.15042   0.00000  Uiso   1.00
O5589  O     0.16124  -0.17721   0.13471   0.00000  Uiso   1.00
C5590  C     0.55180   1.00361   0.51899   0.00000  Uiso   1.00
O5591  O     0.53397   1.01113   0.52259   0.00000  Uiso   1.00
O5592  O     0.56987   0.99670   0.51509   0.00000  Uiso   1.00
C5593  C     0.31224   1.00698   0.20697   0.00000  Uiso   1.00
O5594  O     0.32277   0.99001   0.20594   0.00000  Uiso   1.00
O5595  O     0.30243   1.02425   0.20805   0.00000  Uiso   1.00
C5596  C     0.08690   1.00255   0.25533   0.00000  Uiso   1.00
O5597  O     0.09567   0.98726   0.24574   0.00000  Uiso   1.00
O5598  O     0.08008   1.01788   0.26593   0.00000  Uiso   1.00
C5599  C     0.03306   0.71853   0.17988   0.00000  Uiso   1.00
O5600  O     0.03074   0.72794   0.19728   0.00000  Uiso   1.00
O5601  O     0.03521   0.70878   0.16274   0.00000  Uiso   1.00
C5602  C     0.24575  -0.01978   0.44201   0.00000  Uiso   1.00
O5603  O     0.23642  -0.00294   0.44721   0.00000  Uiso   1.00
O5604  O     0.25616  -0.03613   0.43712   0.00000  Uiso   1.00
C5605  C     0.59278   0.29360   0.84371   0.00000  Uiso   1.00
O5606  O     0.58602   0.29611   0.82513   0.00000  Uiso   1.00
O5607  O     0.59927   0.29130   0.86245   0.00000  Uiso   1.00
C5608  C     0.81928   0.77219   0.76210   0.00000  Uiso   1.00
O5609  O     0.83383   0.76078   0.76980   0.00000  Uiso   1.00
O5610  O     0.80480   0.78340   0.75539   0.00000  Uiso   1.00
C5611  C     0.94999   0.53068  -0.25992   0.00000  Uiso   1.00
O5612  O     0.94615   0.54914  -0.25382   0.00000  Uiso   1.00
O5613  O     0.95373   0.51208  -0.26716   0.00000  Uiso   1.00
C5614  C     1.05229   0.67095   0.52516   0.00000  Uiso   1.00
O5615  O     1.06740   0.65837   0.52788   0.00000  Uiso   1.00
O5616  O     1.03676   0.68334   0.52441   0.00000  Uiso   1.00
C5617  C     0.26222   0.21668   0.58918   0.00000  Uiso   1.00
O5618  O     0.27748   0.20468   0.58224   0.00000  Uiso   1.00
O5619  O     0.24668   0.22826   0.59547   0.00000  Uiso   1.00
C5620  C     0.30750   0.51185   0.86572   0.00000  Uiso   1.00
O5621  O     0.30338   0.52484   0.88063   0.00000  Uiso   1.00
O5622  O     0.31304   0.49947   0.85074   0.00000  Uiso   1.00
C5623  C     0.47870   0.57603   0.11399   0.00000  Uiso   1.00
O5624  O     0.47131   0.56548   0.12906   0.00000  Uiso   1.00
O5625  O     0.48608   0.58641   0.09887   0.00000  Uiso   1.00
C5626  C     0.55118   0.95718   0.44501   0.00000  Uiso   1.00
O5627  O     0.55190   0.93793   0.44049   0.00000  Uiso   1.00
O5628  O     0.55104   0.97686   0.44853   0.00000  Uiso   1.00
C5629  C     0.44703   1.01974   0.37930   0.00000  Uiso   1.00
O5630  O     0.45633   1.02455   0.36235   0.00000  Uiso   1.00
O5631  O     0.43875   1.01355   0.39658   0.00000  Uiso   1.00
C5632  C     0.40684   0.32343   0.10455   0.00000  Uiso   1.00
O5633  O     0.40500   0.30308   0.10502   0.00000  Uiso   1.00
O5634  O     0.40916   0.34274   0.10322   0.00000  Uiso   1.00
C5635  C     0.62296   0.66152   0.86114   0.00000  Uiso   1.00
O5636  O     0.60621   0.67213   0.86023   0.00000  Uiso   1.00
O5637  O     0.63996   0.65156   0.86396   0.00000  Uiso   1.00
C5638  C    -0.03192  -0.22091   0.26136   0.00000  Uiso   1.00
O5639  O    -0.03419  -0.20662   0.27464   0.00000  Uiso   1.00
O5640  O    -0.02935  -0.23548   0.24772   0.00000  Uiso   1.00
C5641  C     1.06165   0.24259  -0.09782   0.00000  Uiso   1.00
O5642  O     1.04284   0.24827  -0.09981   0.00000  Uiso   1.00
O5643  O     1.08008   0.23546  -0.09485   0.00000  Uiso   1.00
C5644  C     0.94192   0.47996   0.37161   0.00000  Uiso   1.00
O5645  O     0.92827   0.48364   0.35753   0.00000  Uiso   1.00
O5646  O     0.95569   0.47503   0.38549   0.00000  Uiso   1.00
C5647  C     0.78375   0.70605   0.99145   0.00000  Uiso   1.00
O5648  O     0.77684   0.69414   1.00537   0.00000  Uiso   1.00
O5649  O     0.79157   0.71767   0.97696   0.00000  Uiso   1.00
C5650  C     0.59661   1.13647   0.51395   0.00000  Uiso   1.00
O5651  O     0.61008   1.12319   0.50849   0.00000  Uiso   1.00
O5652  O     0.58294   1.15025   0.51934   0.00000  Uiso   1.00
C5653  C     1.00808  -0.06731   0.09178   0.00000  Uiso   1.00
O5654  O     1.01240  -0.07107   0.07261   0.00000  Uiso   1.00
O5655  O     1.00349  -0.06238   0.11064   0.00000  Uiso   1.00
C5656  C     0.67854   0.27678   0.96889   0.00000  Uiso   1.00
O5657  O     0.66518   0.26704   0.95836   0.00000  Uiso   1.00
O5658  O     0.69156   0.28653   0.98104   0.00000  Uiso   1.00
C5659  C     0.87066   0.28559   0.88587   0.00000  Uiso   1.00
O5660  O     0.87030   0.27968   0.86687   0.00000  Uiso   1.00
O5661  O     0.87038   0.29200   0.90480   0.00000  Uiso   1.00
C5662  C     0.37783   0.19691   0.34879   0.00000  Uiso   1.00
O5663  O     0.36943   0.20632   0.33360   0.00000  Uiso   1.00
O5664  O     0.38575   0.18775   0.36460   0.00000  Uiso   1.00
C5665  C     0.96547   0.22167   0.43092   0.00000  Uiso   1.00
O5666  O     0.97001   0.20234   0.43395   0.00000  Uiso   1.00
O5667  O     0.96224   0.24039   0.42593   0.00000  Uiso   1.00
C5668  C     0.40253   0.20102  -0.00779   0.00000  Uiso   1.00
O5669  O     0.39533   0.21144  -0.02317   0.00000  Uiso   1.00
O5670  O     0.41006   0.19048   0.00714   0.00000  Uiso   1.00
C5671  C     0.63989   0.69751   0.99517   0.00000  Uiso   1.00
O5672  O     0.62891   0.71351   0.99108   0.00000  Uiso   1.00
O5673  O     0.65012   0.68117   1.00022   0.00000  Uiso   1.00
C5674  C     0.39604   0.13533   0.22726   0.00000  Uiso   1.00
O5675  O     0.37745   0.12930   0.22271   0.00000  Uiso   1.00
O5676  O     0.41398   0.14273   0.23157   0.00000  Uiso   1.00
C5677  C     0.62033   0.17356   0.84387   0.00000  Uiso   1.00
O5678  O     0.60917   0.18522   0.85555   0.00000  Uiso   1.00
O5679  O     0.63176   0.16140   0.83381   0.00000  Uiso   1.00
C5680  C     0.39012   0.83985   0.13728   0.00000  Uiso   1.00
O5681  O     0.39575   0.84432   0.11849   0.00000  Uiso   1.00
O5682  O     0.38312   0.83798   0.15676   0.00000  Uiso   1.00
C5683  C     0.75044   0.65481   0.18686   0.00000  Uiso   1.00
O5684  O     0.73174   0.66061   0.19341   0.00000  Uiso   1.00
O5685  O     0.76791   0.64954   0.17891   0.00000  Uiso   1.00
C5686  C     0.18952   0.89692   0.05680   0.00000  Uiso   1.00
O5687  O     0.17941   0.91328   0.05119   0.00000  Uiso   1.00
O5688  O     0.19910   0.88065   0.06311   0.00000  Uiso   1.00
C5689  C     0.34014   0.28250   0.83846   0.00000  Uiso   1.00
O5690  O     0.32672   0.29684   0.83727   0.00000  Uiso   1.00
O5691  O     0.35342   0.26799   0.83929   0.00000  Uiso   1.00
C5692  C    -0.00053   0.58578   0.09339   0.00000  Uiso   1.00
O5693  O     0.00409   0.59134   0.11173   0.00000  Uiso   1.00
O5694  O    -0.00414   0.58166   0.07359   0.00000  Uiso   1.00
C5695  C     1.09668   0.69257   0.14869   0.00000  Uiso   1.00
O5696  O     1.08241   0.68214   0.15824   0.00000  Uiso   1.00
O5697  O     1.11151   0.70252   0.13917   0.00000  Uiso   1.00
C5698  C     0.90609  -0.03785   0.86503   0.00000  Uiso   1.00
O5699  O     0.91234  -0.04075   0.84675   0.00000  Uiso   1.00
O5700  O     0.90071  -0.03500   0.88383   0.00000  Uiso   1.00
C5701  C     0.43770   0.17490   0.32852   0.00000  Uiso   1.00
O5702  O     0.43476   0.19233   0.33777   0.00000  Uiso   1.00
O5703  O     0.43963   0.15758   0.31868   0.00000  Uiso   1.00
C5704  C     0.72276  -0.16045  -0.00451   0.00000  Uiso   1.00
O5705  O     0.74238  -0.16484  -0.00450   0.00000  Uiso   1.00
O5706  O     0.70333  -0.15551  -0.00499   0.00000  Uiso   1.00
C5707  C     0.56597   1.07000   0.73538   0.00000  Uiso   1.00
O5708  O     0.56385   1.08749   0.74479   0.00000  Uiso   1.00
O5709  O     0.56745   1.05294   0.72555   0.00000  Uiso   1.00
C5710  C     0.47962   0.34035   0.87107   0.00000  Uiso   1.00
O5711  O     0.46870   0.35256   0.88205   0.00000  Uiso   1.00
O5712  O     0.49005   0.32751   0.86059   0.00000  Uiso   1.00
C5713  C     0.05851   0.18093  -0.17099   0.00000  Uiso   1.00
O5714  O     0.04571   0.16814  -0.16236   0.00000  Uiso   1.00
O5715  O     0.07166   0.19313  -0.18016   0.00000  Uiso   1.00
C5716  C     0.88259  -0.08659   0.30035   0.00000  Uiso   1.00
O5717  O     0.87862  -0.07559   0.28414   0.00000  Uiso   1.00
O5718  O     0.88724  -0.09788   0.31598   0.00000  Uiso   1.00
C5719  C     0.26252   0.06346   0.31760   0.00000  Uiso   1.00
O5720  O     0.26973   0.08053   0.32504   0.00000  Uiso   1.00
O5721  O     0.25479   0.04671   0.31030   0.00000  Uiso   1.00
C5722  C     0.19111   0.18859   0.42062   0.00000  Uiso   1.00
O5723  O     0.19049   0.20758   0.41401   0.00000  Uiso   1.00
O5724  O     0.19286   0.16965   0.42688   0.00000  Uiso   1.00
C5725  C     0.60497   0.86470   0.74755   0.00000  Uiso   1.00
O5726  O     0.60568   0.87596   0.73139   0.00000  Uiso   1.00
O5727  O     0.60443   0.85240   0.76262   0.00000  Uiso   1.00
C5728  C     0.46204  -0.01896   0.61391   0.00000  Uiso   1.00
O5729  O     0.46807  -0.03794   0.61350   0.00000  Uiso   1.00
O5730  O     0.45514  -0.00045   0.61429   0.00000  Uiso   1.00
C5731  C     0.43810   0.76957   0.05843   0.00000  Uiso   1.00
O5732  O     0.45155   0.77265   0.07267   0.00000  Uiso   1.00
O5733  O     0.42413   0.76603   0.04476   0.00000  Uiso   1.00
C5734  C     0.13916   0.79564   0.87420   0.00000  Uiso   1.00
O5735  O     0.14690   0.81361   0.87270   0.00000  Uiso   1.00
O5736  O     0.13125   0.77720   0.87583   0.00000  Uiso   1.00
C5737  C     0.97115   0.25527  -0.10615   0.00000  Uiso   1.00
O5738  O     0.97816   0.26116  -0.08874   0.00000  Uiso   1.00
O5739  O     0.96168   0.24889  -0.12224   0.00000  Uiso   1.00
C5740  C     0.75119   0.86563   0.06837   0.00000  Uiso   1.00
O5741  O     0.75816   0.87951   0.08052   0.00000  Uiso   1.00
O5742  O     0.74452   0.85312   0.05416   0.00000  Uiso   1.00
C5743  C     0.79583   0.10808   0.55436   0.00000  Uiso   1.00
O5744  O     0.79934   0.12537   0.56280   0.00000  Uiso   1.00
O5745  O     0.79201   0.09022   0.54609   0.00000  Uiso   1.00
C5746  C    -0.05304   0.66439   0.73566   0.00000  Uiso   1.00
O5747  O    -0.06450   0.65421   0.74845   0.00000  Uiso   1.00
O5748  O    -0.04133   0.67377   0.72260   0.00000  Uiso   1.00
C5749  C     0.61628   1.10012   0.74709   0.00000  Uiso   1.00
O5750  O     0.61178   1.09428   0.76538   0.00000  Uiso   1.00
O5751  O     0.62140   1.10400   0.72813   0.00000  Uiso   1.00
C5752  C     0.65683   0.26517   0.86280   0.00000  Uiso   1.00
O5753  O     0.67067   0.27162   0.87532   0.00000  Uiso   1.00
O5754  O     0.64191   0.26007   0.85136   0.00000  Uiso   1.00
C5755  C     0.68225   0.14225   0.53126   0.00000  Uiso   1.00
O5756  O     0.66440   0.14228   0.52249   0.00000  Uiso   1.00
O5757  O     0.70073   0.14164   0.53866   0.00000  Uiso   1.00
C5758  C     0.39919   0.58578  -0.06991   0.00000  Uiso   1.00
O5759  O     0.39915   0.60352  -0.07927   0.00000  Uiso   1.00
O5760  O     0.40007   0.56862  -0.05962   0.00000  Uiso   1.00
C5761  C     0.45170   1.09712   0.13279   0.00000  Uiso   1.00
O5762  O     0.45340   1.08670   0.11592   0.00000  Uiso   1.00
O5763  O     0.45037   1.10802   0.14949   0.00000  Uiso   1.00
C5764  C     0.73208   0.89914   0.51854   0.00000  Uiso   1.00
O5765  O     0.74912   0.88906   0.51631   0.00000  Uiso   1.00
O5766  O     0.71560   0.91000   0.52108   0.00000  Uiso   1.00
C5767  C     0.55444   0.14245   0.38117   0.00000  Uiso   1.00
O5768  O     0.55153   0.12586   0.37099   0.00000  Uiso   1.00
O5769  O     0.55711   0.15859   0.39221   0.00000  Uiso   1.00
C5770  C     0.29493   0.91063   0.46347   0.00000  Uiso   1.00
O5771  O     0.30867   0.92480   0.46708   0.00000  Uiso   1.00
O5772  O     0.28217   0.89566   0.45931   0.00000  Uiso   1.00
C5773  C     0.29438   0.94019   0.86373   0.00000  Uiso   1.00
O5774  O     0.28225   0.94011   0.87925   0.00000  Uiso   1.00
O5775  O     0.30647   0.93931   0.84818   0.00000  Uiso   1.00
C5776  C     0.91417   0.96305   0.54831   0.00000  Uiso   1.00
O5777  O     0.90820   0.98055   0.55528   0.00000  Uiso   1.00
O5778  O     0.92063   0.94615   0.54021   0.00000  Uiso   1.00
C5779  C     0.32792   0.13937   0.88056   0.00000  Uiso   1.00
O5780  O     0.34458   0.14476   0.89035   0.00000  Uiso   1.00
O5781  O     0.31102   0.13373   0.87106   0.00000  Uiso   1.00
C5782  C     0.85487   0.94756   0.56056   0.00000  Uiso   1.00
O5783  O     0.85498   0.96152   0.54587   0.00000  Uiso   1.00
O5784  O     0.85517   0.93298   0.57379   0.00000  Uiso   1.00
C5785  C    -0.05270   0.15243   0.49453   0.00000  Uiso   1.00
O5786  O    -0.06819   0.15916   0.48409   0.00000  Uiso   1.00
O5787  O    -0.03689   0.14561   0.50451   0.00000  Uiso   1.00
C5788  C     0.75241  -0.01813  -0.03883   0.00000  Uiso   1.00
O5789  O     0.77207  -0.02188  -0.03946   0.00000  Uiso   1.00
O5790  O     0.73259  -0.01531  -0.04006   0.00000  Uiso   1.00
C5791  C     0.67935   0.28780   0.77023   0.00000  Uiso   1.00
O5792  O     0.66759   0.28679   0.75372   0.00000  Uiso   1.00
O5793  O     0.69027   0.28945   0.78680   0.00000  Uiso   1.00
C5794  C    -0.12946   0.56467   0.84031   0.00000  Uiso   1.00
O5795  O    -0.14266   0.55233   0.83219   0.00000  Uiso   1.00
O5796  O    -0.11648   0.57724   0.84885   0.00000  Uiso   1.00
C5797  C     0.91702   0.09565   0.00761   0.00000  Uiso   1.00
O5798  O     0.92169   0.08941   0.02603   0.00000  Uiso   1.00
O5799  O     0.91163   0.10191  -0.01075   0.00000  Uiso   1.00
C5800  C     0.27243   1.11240   0.19388   0.00000  Uiso   1.00
O5801  O     0.27305   1.11137   0.17399   0.00000  Uiso   1.00
O5802  O     0.27148   1.11545   0.21364   0.00000  Uiso   1.00
C5803  C     0.16484   0.68713   0.11762   0.00000  Uiso   1.00
O5804  O     0.16460   0.69292   0.13644   0.00000  Uiso   1.00
O5805  O     0.16597   0.67933   0.09890   0.00000  Uiso   1.00
C5806  C     1.10303   0.18630   0.55838   0.00000  Uiso   1.00
O5807  O     1.10078   0.19236   0.53952   0.00000  Uiso   1.00
O5808  O     1.10431   0.18032   0.57743   0.00000  Uiso   1.00
C5809  C     0.71312   0.94871   0.77155   0.00000  Uiso   1.00
O5810  O     0.70983   0.93120   0.76239   0.00000  Uiso   1.00
O5811  O     0.71757   0.96541   0.78095   0.00000  Uiso   1.00
C5812  C     0.31144   1.02268   0.78706   0.00000  Uiso   1.00
O5813  O     0.31596   1.04191   0.78482   0.00000  Uiso   1.00
O5814  O     0.30780   1.00308   0.78928   0.00000  Uiso   1.00
C5815  C     0.54937   0.34138  -0.14178   0.00000  Uiso   1.00
O5816  O     0.53442   0.33117  -0.13406   0.00000  Uiso   1.00
O5817  O     0.56449   0.35128  -0.14968   0.00000  Uiso   1.00
C5818  C     0.63150   0.14371   0.65602   0.00000  Uiso   1.00
O5819  O     0.63373   0.12507   0.66330   0.00000  Uiso   1.00
O5820  O     0.62909   0.16215   0.64909   0.00000  Uiso   1.00
C5821  C     0.23544  -0.14361   0.43265   0.00000  Uiso   1.00
O5822  O     0.23402  -0.14697   0.41313   0.00000  Uiso   1.00
O5823  O     0.23851  -0.14037   0.45210   0.00000  Uiso   1.00
C5824  C     0.80800   0.43926  -0.16830   0.00000  Uiso   1.00
O5825  O     0.79783   0.45548  -0.16208   0.00000  Uiso   1.00
O5826  O     0.81818   0.42295  -0.17386   0.00000  Uiso   1.00
C5827  C     0.82094   1.17079   1.03736   0.00000  Uiso   1.00
O5828  O     0.83280   1.17059   1.05347   0.00000  Uiso   1.00
O5829  O     0.80935   1.17027   1.02102   0.00000  Uiso   1.00
C5830  C     0.49873   0.11781   1.01764   0.00000  Uiso   1.00
O5831  O     0.51096   0.13296   1.02205   0.00000  Uiso   1.00
O5832  O     0.48669   0.10226   1.01297   0.00000  Uiso   1.00
C5833  C     0.51204   0.14056   0.58313   0.00000  Uiso   1.00
O5834  O     0.49781   0.15326   0.58792   0.00000  Uiso   1.00
O5835  O     0.52651   0.12889   0.57595   0.00000  Uiso   1.00
C5836  C     0.56874   0.18013   0.69267   0.00000  Uiso   1.00
O5837  O     0.55949   0.18438   0.67555   0.00000  Uiso   1.00
O5838  O     0.57719   0.17642   0.71038   0.00000  Uiso   1.00
C5839  C     0.19425   0.90175  -0.12337   0.00000  Uiso   1.00
O5840  O     0.18933   0.88351  -0.12920   0.00000  Uiso   1.00
O5841  O     0.19878   0.92031  -0.11696   0.00000  Uiso   1.00
C5842  C     0.83042   0.24197   0.70754   0.00000  Uiso   1.00
O5843  O     0.83447   0.26150   0.70771   0.00000  Uiso   1.00
O5844  O     0.82734   0.22244   0.70860   0.00000  Uiso   1.00
C5845  C     0.23563   0.88480   0.32316   0.00000  Uiso   1.00
O5846  O     0.22361   0.87652   0.30935   0.00000  Uiso   1.00
O5847  O     0.24766   0.89356   0.33651   0.00000  Uiso   1.00
C5848  C     0.32793   0.21298   0.98995   0.00000  Uiso   1.00
O5849  O     0.33118   0.20862   0.97102   0.00000  Uiso   1.00
O5850  O     0.32505   0.21714   1.00939   0.00000  Uiso   1.00
C5851  C     0.34260   0.67131   0.01475   0.00000  Uiso   1.00
O5852  O     0.34847   0.68920   0.02173   0.00000  Uiso   1.00
O5853  O     0.33721   0.65355   0.00752   0.00000  Uiso   1.00
C5854  C     0.92381   0.59502   0.71493   0.00000  Uiso   1.00
O5855  O     0.91104   0.60664   0.72489   0.00000  Uiso   1.00
O5856  O     0.93654   0.58328   0.70565   0.00000  Uiso   1.00
C5857  C     1.17678   0.18208   0.23138   0.00000  Uiso   1.00
O5858  O     1.17919   0.19626   0.21684   0.00000  Uiso   1.00
O5859  O     1.17283   0.16968   0.24645   0.00000  Uiso   1.00
C5860  C    -0.07373   0.17319   1.01262   0.00000  Uiso   1.00
O5861  O    -0.05393   0.17102   1.01134   0.00000  Uiso   1.00
O5862  O    -0.09364   0.17493   1.01446   0.00000  Uiso   1.00
C5863  C     0.85984   0.23318   0.03091   0.00000  Uiso   1.00
O5864  O     0.85932   0.25044   0.04055   0.00000  Uiso   1.00
O5865  O     0.86082   0.21558   0.02163   0.00000  Uiso   1.00
C5866  C     0.74824  -0.09919   0.30837   0.00000  Uiso   1.00
O5867  O     0.75406  -0.08971   0.29169   0.00000  Uiso   1.00
O5868  O     0.74251  -0.10717   0.32537   0.00000  Uiso   1.00
C5869  C     0.58365   1.05532   0.85606   0.00000  Uiso   1.00
O5870  O     0.59305   1.03811   0.85778   0.00000  Uiso   1.00
O5871  O     0.57385   1.07222   0.85267   0.00000  Uiso   1.00
C5872  C     0.01912   0.13030   0.21530   0.00000  Uiso   1.00
O5873  O     0.01713   0.14266   0.19969   0.00000  Uiso   1.00
O5874  O     0.02230   0.11838   0.23084   0.00000  Uiso   1.00
C5875  C     0.24920   1.10039   0.93097   0.00000  Uiso   1.00
O5876  O     0.26116   1.08716   0.92146   0.00000  Uiso   1.00
O5877  O     0.23617   1.11219   0.94018   0.00000  Uiso   1.00
C5878  C     0.95683   0.81379   0.20496   0.00000  Uiso   1.00
O5879  O     0.94805   0.80460   0.22022   0.00000  Uiso   1.00
O5880  O     0.96582   0.82303   0.18970   0.00000  Uiso   1.00
C5881  C     0.95114   0.87399   0.43478   0.00000  Uiso   1.00
O5882  O     0.95250   0.85413   0.43717   0.00000  Uiso   1.00
O5883  O     0.95062   0.89403   0.43233   0.00000  Uiso   1.00
C5884  C     0.46151   0.62629   1.04792   0.00000  Uiso   1.00
O5885  O     0.47940   0.62263   1.05565   0.00000  Uiso   1.00
O5886  O     0.44275   0.62963   1.04023   0.00000  Uiso   1.00
C5887  C     0.81817   0.65325   0.90793   0.00000  Uiso   1.00
O5888  O     0.80297   0.66604   0.90672   0.00000  Uiso   1.00
O5889  O     0.83385   0.64081   0.90999   0.00000  Uiso   1.00
C5890  C     0.25708   0.32837   0.94905   0.00000  Uiso   1.00
O5891  O     0.24784   0.32712   0.96648   0.00000  Uiso   1.00
O5892  O     0.26456   0.32982   0.93111   0.00000  Uiso   1.00
C5893  C     0.45829   0.63525   1.11491   0.00000  Uiso   1.00
O5894  O     0.46576   0.64426   1.09888   0.00000  Uiso   1.00
O5895  O     0.45132   0.62617   1.13129   0.00000  Uiso   1.00
C5896  C     0.05383   0.80228   0.87068   0.00000  Uiso   1.00
O5897  O     0.05200   0.81771   0.85858   0.00000  Uiso   1.00
O5898  O     0.05656   0.78773   0.88372   0.00000  Uiso   1.00
C5899  C     0.19627   0.66117   0.72323   0.00000  Uiso   1.00
O5900  O     0.18701   0.67645   0.73129   0.00000  Uiso   1.00
O5901  O     0.20514   0.64485   0.71539   0.00000  Uiso   1.00
C5902  C     0.16430   0.32050   0.58943   0.00000  Uiso   1.00
O5903  O     0.17796   0.32803   0.60170   0.00000  Uiso   1.00
O5904  O     0.15044   0.31324   0.57704   0.00000  Uiso   1.00
C5905  C    -0.01035   0.92298  -0.18090   0.00000  Uiso   1.00
O5906  O     0.00693   0.91362  -0.18327   0.00000  Uiso   1.00
O5907  O    -0.02810   0.93260  -0.17999   0.00000  Uiso   1.00
C5908  C    -0.07237   0.31741   0.22323   0.00000  Uiso   1.00
O5909  O    -0.06331   0.32091   0.24044   0.00000  Uiso   1.00
O5910  O    -0.08173   0.31450   0.20595   0.00000  Uiso   1.00
C5911  C     0.91124   0.17437   0.59656   0.00000  Uiso   1.00
O5912  O     0.91332   0.15634   0.58896   0.00000  Uiso   1.00
O5913  O     0.90979   0.19250   0.60449   0.00000  Uiso   1.00
C5914  C     0.44654   0.27076  -0.10080   0.00000  Uiso   1.00
O5915  O     0.45701   0.28737  -0.09683   0.00000  Uiso   1.00
O5916  O     0.43687   0.25417  -0.10513   0.00000  Uiso   1.00
C5917  C     0.80147  -0.16273   0.13893   0.00000  Uiso   1.00
O5918  O     0.78891  -0.16857   0.12465   0.00000  Uiso   1.00
O5919  O     0.81373  -0.15683   0.15337   0.00000  Uiso   1.00
C5920  C     0.17571   0.91766   0.42983   0.00000  Uiso   1.00
O5921  O     0.18408   0.93586   0.42623   0.00000  Uiso   1.00
O5922  O     0.16888   0.89928   0.43213   0.00000  Uiso   1.00
C5923  C     1.10329   1.06163   0.27154   0.00000  Uiso   1.00
O5924  O     1.08409   1.06516   0.27596   0.00000  Uiso   1.00
O5925  O     1.12229   1.05751   0.26665   0.00000  Uiso   1.00
C5926  C     0.78251   0.62557   0.77053   0.00000  Uiso   1.00
O5927  O     0.76907   0.63522   0.78179   0.00000  Uiso   1.00
O5928  O     0.79575   0.61552   0.75959   0.00000  Uiso   1.00
C5929  C     0.89106   0.38745   0.32468   0.00000  Uiso   1.00
O5930  O     0.89124   0.38430   0.30540   0.00000  Uiso   1.00
O5931  O     0.89016   0.38926   0.34449   0.00000  Uiso   1.00
C5932  C     0.32101   0.04354   0.60505   0.00000  Uiso   1.00
O5933  O     0.32341   0.02823   0.61747   0.00000  Uiso   1.00
O5934  O     0.31983   0.05933   0.59329   0.00000  Uiso   1.00
C5935  C     0.16274   0.89988   0.71841   0.00000  Uiso   1.00
O5936  O     0.15874   0.90502   0.69977   0.00000  Uiso   1.00
O5937  O     0.16703   0.89443   0.73653   0.00000  Uiso   1.00
C5938  C     0.91225   0.34554   0.90613   0.00000  Uiso   1.00
O5939  O     0.93005   0.35387   0.90251   0.00000  Uiso   1.00
O5940  O     0.89372   0.33674   0.90848   0.00000  Uiso   1.00
C5941  C     0.15713   0.54793   0.32299   0.00000  Uiso   1.00
O5942  O     0.16314   0.54125   0.30507   0.00000  Uiso   1.00
O5943  O     0.15143   0.55366   0.34131   0.00000  Uiso   1.00
C5944  C    -0.11392   0.35932   0.70709   0.00000  Uiso   1.00
O5945  O    -0.12172   0.35060   0.72315   0.00000  Uiso   1.00
O5946  O    -0.10627   0.36789   0.69110   0.00000  Uiso   1.00
C5947  C     0.18234  -0.00281   0.42611   0.00000  Uiso   1.00
O5948  O     0.17565  -0.01140   0.44375   0.00000  Uiso   1.00
O5949  O     0.19097   0.00273   0.40910   0.00000  Uiso   1.00
C5950  C     0.86598   0.69319   0.56452   0.00000  Uiso   1.00
O5951  O     0.86145   0.68681   0.58271   0.00000  Uiso   1.00
O5952  O     0.87098   0.70003   0.54629   0.00000  Uiso   1.00
C5953  C     0.20947   0.36378   0.21323   0.00000  Uiso   1.00
O5954  O     0.22751   0.35908   0.21902   0.00000  Uiso   1.00
O5955  O     0.19028   0.36700   0.20814   0.00000  Uiso   1.00
C5956  C     0.79825   0.31914   0.97734   0.00000  Uiso   1.00
O5957  O     0.81576   0.32801   0.97899   0.00000  Uiso   1.00
O5958  O     0.78163   0.30977   0.97507   0.00000  Uiso   1.00
C5959  C     0.66733   0.15557   0.29274   0.00000  Uiso   1.00
O5960  O     0.67175   0.17472   0.28804   0.00000  Uiso   1.00
O5961  O     0.66190   0.13656   0.29695   0.00000  Uiso   1.00
C5962  C     0.91605   0.80486   0.70847   0.00000  Uiso   1.00
O5963  O     0.92612   0.80664   0.69114   0.00000  Uiso   1.00
O5964  O     0.90713   0.80341   0.72584   0.00000  Uiso   1.00
C5965  C     0.16376   0.31218   0.07374   0.00000  Uiso   1.00
O5966  O     0.16253   0.31802   0.05461   0.00000  Uiso   1.00
O5967  O     0.16619   0.30643   0.09269   0.00000  Uiso   1.00
C5968  C     0.75613   0.68826   0.78103   0.00000  Uiso   1.00
O5969  O     0.77589   0.69104   0.77987   0.00000  Uiso   1.00
O5970  O     0.73637   0.68513   0.78225   0.00000  Uiso   1.00
C5971  C     0.76790   0.29876   0.31417   0.00000  Uiso   1.00
O5972  O     0.77955   0.28401   0.30734   0.00000  Uiso   1.00
O5973  O     0.75760   0.31498   0.32083   0.00000  Uiso   1.00
C5974  C     0.16733   0.72097   0.64294   0.00000  Uiso   1.00
O5975  O     0.15109   0.71171   0.63597   0.00000  Uiso   1.00
O5976  O     0.18351   0.72977   0.65039   0.00000  Uiso   1.00
C5977  C     0.76155   0.83531   0.24469   0.00000  Uiso   1.00
O5978  O     0.77689   0.84717   0.23984   0.00000  Uiso   1.00
O5979  O     0.74604   0.82372   0.24959   0.00000  Uiso   1.00
C5980  C     0.52662   0.22030   0.72314   0.00000  Uiso   1.00
O5981  O     0.50864   0.21369   0.72907   0.00000  Uiso   1.00
O5982  O     0.54469   0.22652   0.71725   0.00000  Uiso   1.00
C5983  C     0.85788   0.41173   0.38658   0.00000  Uiso   1.00
O5984  O     0.86236   0.43090   0.38978   0.00000  Uiso   1.00
O5985  O     0.85425   0.39213   0.38392   0.00000  Uiso   1.00
C5986  C     0.67142   0.95491   0.68139   0.00000  Uiso   1.00
O5987  O     0.67741   0.95250   0.66188   0.00000  Uiso   1.00
O5988  O     0.66657   0.95553   0.70090   0.00000  Uiso   1.00
C5989  C     0.77988   0.53269   0.21338   0.00000  Uiso   1.00
O5990  O     0.77971   0.51388   0.21957   0.00000  Uiso   1.00
O5991  O     0.78059   0.55151   0.20717   0.00000  Uiso   1.00
C5992  C     0.69114   0.76475   0.80762   0.00000  Uiso   1.00
O5993  O     0.69150   0.77180   0.82599   0.00000  Uiso   1.00
O5994  O     0.69076   0.75799   0.78895   0.00000  Uiso   1.00
C5995  C     0.90693   0.80616   0.26989   0.00000  Uiso   1.00
O5996  O     0.90902   0.82406   0.27841   0.00000  Uiso   1.00
O5997  O     0.90811   0.78780   0.26187   0.00000  Uiso   1.00
C5998  C     0.43892   0.02729   0.67320   0.00000  Uiso   1.00
O5999  O     0.45380   0.02138   0.68432   0.00000  Uiso   1.00
O6000  O     0.42390   0.03492   0.66224   0.00000  Uiso   1.00
C6001  C     0.38123   0.16851   0.53475   0.00000  Uiso   1.00
O6002  O     0.37621   0.17261   0.51599   0.00000  Uiso   1.00
O6003  O     0.38701   0.16343   0.55315   0.00000  Uiso   1.00
C6004  C     0.25645   0.15229   0.90367   0.00000  Uiso   1.00
O6005  O     0.27581   0.15256   0.90100   0.00000  Uiso   1.00
O6006  O     0.23709   0.15108   0.90637   0.00000  Uiso   1.00
C6007  C     1.15980   0.30236   0.82316   0.00000  Uiso   1.00
O6008  O     1.15988   0.29223   0.80511   0.00000  Uiso   1.00
O6009  O     1.16193   0.31069   0.84152   0.00000  Uiso   1.00
C6010  C     0.38172   0.06898   0.68244   0.00000  Uiso   1.00
O6011  O     0.39643   0.06922   0.69579   0.00000  Uiso   1.00
O6012  O     0.36736   0.06888   0.66865   0.00000  Uiso   1.00
C6013  C     0.21262   0.84363   0.60868   0.00000  Uiso   1.00
O6014  O     0.20528   0.85091   0.59167   0.00000  Uiso   1.00
O6015  O     0.21721   0.83745   0.62685   0.00000  Uiso   1.00
C6016  C     0.92735   0.86184  -0.34275   0.00000  Uiso   1.00
O6017  O     0.94042   0.86522  -0.35787   0.00000  Uiso   1.00
O6018  O     0.91500   0.85905  -0.32749   0.00000  Uiso   1.00
C6019  C     0.15196   0.13347   0.35523   0.00000  Uiso   1.00
O6020  O     0.16523   0.12685   0.34172   0.00000  Uiso   1.00
O6021  O     0.13796   0.13943   0.36853   0.00000  Uiso   1.00
C6022  C     0.41084   0.54505   0.04345   0.00000  Uiso   1.00
O6023  O     0.40312   0.55984   0.05603   0.00000  Uiso   1.00
O6024  O     0.41737   0.53071   0.03031   0.00000  Uiso   1.00
C6025  C     0.44560   1.17882   0.65990   0.00000  Uiso   1.00
O6026  O     0.45622   1.17758   0.64317   0.00000  Uiso   1.00
O6027  O     0.43467   1.17939   0.67652   0.00000  Uiso   1.00
C6028  C     0.97737   0.18273  -0.08221   0.00000  Uiso   1.00
O6029  O     0.99297   0.17550  -0.07289   0.00000  Uiso   1.00
O6030  O     0.96142   0.19034  -0.09083   0.00000  Uiso   1.00
C6031  C     0.27574   0.78317   0.23241   0.00000  Uiso   1.00
O6032  O     0.26196   0.78484   0.24673   0.00000  Uiso   1.00
O6033  O     0.28976   0.78222   0.21833   0.00000  Uiso   1.00
C6034  C     0.45214   0.51681   0.94733   0.00000  Uiso   1.00
O6035  O     0.44717   0.49993   0.95710   0.00000  Uiso   1.00
O6036  O     0.45835   0.53341   0.93846   0.00000  Uiso   1.00
C6037  C     1.05060   0.39153   0.28037   0.00000  Uiso   1.00
O6038  O     1.06815   0.40009   0.27868   0.00000  Uiso   1.00
O6039  O     1.03292   0.38330   0.28285   0.00000  Uiso   1.00
C6040  C     0.15667   0.50855   1.04944   0.00000  Uiso   1.00
O6041  O     0.14681   0.51496   1.03340   0.00000  Uiso   1.00
O6042  O     0.16710   0.50353   1.06556   0.00000  Uiso   1.00
C6043  C     0.11410   0.15094   0.91335   0.00000  Uiso   1.00
O6044  O     0.11419   0.16907   0.90542   0.00000  Uiso   1.00
O6045  O     0.11356   0.13244   0.92083   0.00000  Uiso   1.00
C6046  C     0.61966   0.27548   0.78376   0.00000  Uiso   1.00
O6047  O     0.62700   0.26530   0.79926   0.00000  Uiso   1.00
O6048  O     0.61185   0.28600   0.76872   0.00000  Uiso   1.00
C6049  C     0.45486   0.20117  -0.05013   0.00000  Uiso   1.00
O6050  O     0.44822   0.18893  -0.03572   0.00000  Uiso   1.00
O6051  O     0.46127   0.21381  -0.06424   0.00000  Uiso   1.00
C6052  C     0.25480   0.50122   0.08355   0.00000  Uiso   1.00
O6053  O     0.27249   0.50669   0.09111   0.00000  Uiso   1.00
O6054  O     0.23740   0.49523   0.07548   0.00000  Uiso   1.00
C6055  C     0.62000   0.11774   0.56633   0.00000  Uiso   1.00
O6056  O     0.61145   0.13317   0.57511   0.00000  Uiso   1.00
O6057  O     0.62882   0.10158   0.55819   0.00000  Uiso   1.00
C6058  C     0.78242   1.05371   0.35090   0.00000  Uiso   1.00
O6059  O     0.79963   1.05431   0.36131   0.00000  Uiso   1.00
O6060  O     0.76528   1.05389   0.34078   0.00000  Uiso   1.00
C6061  C     0.05206   0.43850   0.35410   0.00000  Uiso   1.00
O6062  O     0.05225   0.42105   0.34400   0.00000  Uiso   1.00
O6063  O     0.05223   0.45508   0.36519   0.00000  Uiso   1.00
C6064  C     0.91035   0.73584   0.32002   0.00000  Uiso   1.00
O6065  O     0.92579   0.73467   0.30819   0.00000  Uiso   1.00
O6066  O     0.89561   0.73676   0.33362   0.00000  Uiso   1.00
C6067  C     1.26557   0.80221  -0.01529   0.00000  Uiso   1.00
O6068  O     1.28422   0.79447  -0.01574   0.00000  Uiso   1.00
O6069  O     1.24714   0.81020  -0.01537   0.00000  Uiso   1.00
C6070  C     0.74522   0.57117   0.18074   0.00000  Uiso   1.00
O6071  O     0.75143   0.58932   0.18113   0.00000  Uiso   1.00
O6072  O     0.73961   0.55258   0.18229   0.00000  Uiso   1.00
C6073  C     0.11806   0.67405   0.56519   0.00000  Uiso   1.00
O6074  O     0.13626   0.68188   0.56388   0.00000  Uiso   1.00
O6075  O     0.10023   0.66504   0.56480   0.00000  Uiso   1.00
C6076  C     0.77988   0.82386   0.31898   0.00000  Uiso   1.00
O6077  O     0.76227   0.83254   0.31963   0.00000  Uiso   1.00
O6078  O     0.79821   0.81700   0.31838   0.00000  Uiso   1.00
C6079  C     0.03648   0.43561   0.08991   0.00000  Uiso   1.00
O6080  O     0.04681   0.45184   0.09467   0.00000  Uiso   1.00
O6081  O     0.02657   0.41888   0.08549   0.00000  Uiso   1.00
C6082  C     0.99953   0.76935   0.01550   0.00000  Uiso   1.00
O6083  O     0.99627   0.75802   0.03146   0.00000  Uiso   1.00
O6084  O     1.00297   0.78073  -0.00060   0.00000  Uiso   1.00
C6085  C     0.95644   0.15732   0.81911   0.00000  Uiso   1.00
O6086  O     0.97446   0.16189   0.81180   0.00000  Uiso   1.00
O6087  O     0.93813   0.15189   0.82677   0.00000  Uiso   1.00
C6088  C     0.78914   0.13029  -0.01395   0.00000  Uiso   1.00
O6089  O     0.80558   0.12637  -0.00332   0.00000  Uiso   1.00
O6090  O     0.77179   0.13332  -0.02390   0.00000  Uiso   1.00
C6091  C     0.33639   0.58606   0.87617   0.00000  Uiso   1.00
O6092  O     0.32329   0.58684   0.86113   0.00000  Uiso   1.00
O6093  O     0.34834   0.58449   0.89272   0.00000  Uiso   1.00
C6094  C     0.43232   0.38838   0.92665   0.00000  Uiso   1.00
O6095  O     0.41371   0.39580   0.92624   0.00000  Uiso   1.00
O6096  O     0.45112   0.38146   0.92756   0.00000  Uiso   1.00
C6097  C     0.27837   0.14130   0.80921   0.00000  Uiso   1.00
O6098  O     0.26271   0.15331   0.80986   0.00000  Uiso   1.00
O6099  O     0.29451   0.12954   0.80841   0.00000  Uiso   1.00
C6100  C     0.91823   1.12987   0.18896   0.00000  Uiso   1.00
O6101  O     0.93702   1.12812   0.19449   0.00000  Uiso   1.00
O6102  O     0.89888   1.12894   0.18322   0.00000  Uiso   1.00
C6103  C     0.60970   0.02550   0.73693   0.00000  Uiso   1.00
O6104  O     0.62105   0.03769   0.72607   0.00000  Uiso   1.00
O6105  O     0.59948   0.01244   0.74803   0.00000  Uiso   1.00
C6106  C     0.74490  -0.20362   0.18390   0.00000  Uiso   1.00
O6107  O     0.74686  -0.21807   0.19769   0.00000  Uiso   1.00
O6108  O     0.74190  -0.19003   0.16966   0.00000  Uiso   1.00
C6109  C     0.81767   0.25064   0.13820   0.00000  Uiso   1.00
O6110  O     0.81224   0.26935   0.14468   0.00000  Uiso   1.00
O6111  O     0.82393   0.23375   0.13081   0.00000  Uiso   1.00
C6112  C     0.20094   0.32384   0.77110   0.00000  Uiso   1.00
O6113  O     0.21675   0.32668   0.78273   0.00000  Uiso   1.00
O6114  O     0.18582   0.32051   0.75883   0.00000  Uiso   1.00
C6115  C     0.12346   0.80104  -0.31723   0.00000  Uiso   1.00
O6116  O     0.14075   0.79405  -0.31180   0.00000  Uiso   1.00
O6117  O     0.10710   0.80934  -0.32394   0.00000  Uiso   1.00
C6118  C     0.58917  -0.16613  -0.01636   0.00000  Uiso   1.00
O6119  O     0.57459  -0.15675  -0.00695   0.00000  Uiso   1.00
O6120  O     0.60246  -0.17605  -0.02808   0.00000  Uiso   1.00
C6121  C     0.40971   0.01211   0.45623   0.00000  Uiso   1.00
O6122  O     0.42126   0.01648   0.47224   0.00000  Uiso   1.00
O6123  O     0.39735   0.00709   0.44167   0.00000  Uiso   1.00
C6124  C     0.07498   0.57787   0.09770   0.00000  Uiso   1.00
O6125  O     0.06961   0.58779   0.08137   0.00000  Uiso   1.00
O6126  O     0.08103   0.56759   0.11381   0.00000  Uiso   1.00
C6127  C     0.53335   0.26511   0.79255   0.00000  Uiso   1.00
O6128  O     0.51746   0.26701   0.78080   0.00000  Uiso   1.00
O6129  O     0.55029   0.26331   0.80336   0.00000  Uiso   1.00
C6130  C     0.10924   0.26982   0.72411   0.00000  Uiso   1.00
O6131  O     0.11155   0.25664   0.73891   0.00000  Uiso   1.00
O6132  O     0.10511   0.28383   0.71008   0.00000  Uiso   1.00
C6133  C     0.64181   0.99580   0.19146   0.00000  Uiso   1.00
O6134  O     0.62560   0.98400   0.19006   0.00000  Uiso   1.00
O6135  O     0.65802   1.00755   0.19260   0.00000  Uiso   1.00
C6136  C     0.35514   0.24243   0.29341   0.00000  Uiso   1.00
O6137  O     0.34142   0.23754   0.30660   0.00000  Uiso   1.00
O6138  O     0.36933   0.24596   0.28017   0.00000  Uiso   1.00
C6139  C     0.98746   0.32518  -0.04641   0.00000  Uiso   1.00
O6140  O     0.99461   0.33198  -0.02905   0.00000  Uiso   1.00
O6141  O     0.98177   0.31893  -0.06401   0.00000  Uiso   1.00
C6142  C    -0.09883   0.47888   0.51183   0.00000  Uiso   1.00
O6143  O    -0.10641   0.46484   0.49998   0.00000  Uiso   1.00
O6144  O    -0.09185   0.49308   0.52346   0.00000  Uiso   1.00
C6145  C     0.53499   0.93291   0.77080   0.00000  Uiso   1.00
O6146  O     0.54270   0.94277   0.75527   0.00000  Uiso   1.00
O6147  O     0.52710   0.92290   0.78653   0.00000  Uiso   1.00
C6148  C     0.68469  -0.13215   0.76695   0.00000  Uiso   1.00
O6149  O     0.66799  -0.13695   0.77673   0.00000  Uiso   1.00
O6150  O     0.70160  -0.12743   0.75746   0.00000  Uiso   1.00
C6151  C     1.06163   0.73137   0.99214   0.00000  Uiso   1.00
O6152  O     1.05364   0.74835   0.98578   0.00000  Uiso   1.00
O6153  O     1.06804   0.71448   1.00073   0.00000  Uiso   1.00
C6154  C     0.91090   0.26376   0.06994   0.00000  Uiso   1.00
O6155  O     0.91644   0.26133   0.05093   0.00000  Uiso   1.00
O6156  O     0.90431   0.26703   0.08834   0.00000  Uiso   1.00
C6157  C     0.41263   0.96535   0.69534   0.00000  Uiso   1.00
O6158  O     0.39711   0.95530   0.70328   0.00000  Uiso   1.00
O6159  O     0.42729   0.97583   0.68650   0.00000  Uiso   1.00
C6160  C     0.21965   0.63020   0.88000   0.00000  Uiso   1.00
O6161  O     0.20340   0.63528   0.89116   0.00000  Uiso   1.00
O6162  O     0.23562   0.62571   0.86988   0.00000  Uiso   1.00
C6163  C     1.02159   0.93566   0.30817   0.00000  Uiso   1.00
O6164  O     1.03861   0.94586   0.30584   0.00000  Uiso   1.00
O6165  O     1.00438   0.92556   0.31269   0.00000  Uiso   1.00
C6166  C     1.01918   0.08581   0.67069   0.00000  Uiso   1.00
O6167  O     1.01938   0.08010   0.68935   0.00000  Uiso   1.00
O6168  O     1.01623   0.09372   0.65249   0.00000  Uiso   1.00
C6169  C     0.68601   0.38692   0.84630   0.00000  Uiso   1.00
O6170  O     0.67318   0.40088   0.85115   0.00000  Uiso   1.00
O6171  O     0.69957   0.37279   0.84178   0.00000  Uiso   1.00
C6172  C     0.55407   0.83568   0.77535   0.00000  Uiso   1.00
O6173  O     0.54841   0.83607   0.75600   0.00000  Uiso   1.00
O6174  O     0.56015   0.83493   0.79461   0.00000  Uiso   1.00
C6175  C     1.00752   0.66820   0.48200   0.00000  Uiso   1.00
O6176  O     1.01003   0.68663   0.47530   0.00000  Uiso   1.00
O6177  O     1.00586   0.64965   0.48831   0.00000  Uiso   1.00
C6178  C     0.12016   0.08577   0.33640   0.00000  Uiso   1.00
O6179  O     0.13430   0.08086   0.32250   0.00000  Uiso   1.00
O6180  O     0.10581   0.09062   0.34888   0.00000  Uiso   1.00
C6181  C     0.24831   0.66298   0.03274   0.00000  Uiso   1.00
O6182  O     0.26159   0.65111   0.02409   0.00000  Uiso   1.00
O6183  O     0.23603   0.67608   0.04161   0.00000  Uiso   1.00
C6184  C     1.10174   0.23546   0.26835   0.00000  Uiso   1.00
O6185  O     1.11814   0.24538   0.27317   0.00000  Uiso   1.00
O6186  O     1.08445   0.22551   0.26381   0.00000  Uiso   1.00
C6187  C     0.23800   1.07016   0.55971   0.00000  Uiso   1.00
O6188  O     0.22735   1.08678   0.56290   0.00000  Uiso   1.00
O6189  O     0.24945   1.05388   0.55746   0.00000  Uiso   1.00
C6190  C     0.78636   1.05723   0.71595   0.00000  Uiso   1.00
O6191  O     0.78371   1.07633   0.72108   0.00000  Uiso   1.00
O6192  O     0.78964   1.03858   0.71055   0.00000  Uiso   1.00
C6193  C     0.65185  -0.05737   0.21872   0.00000  Uiso   1.00
O6194  O     0.67081  -0.05937   0.22345   0.00000  Uiso   1.00
O6195  O     0.63244  -0.05635   0.21402   0.00000  Uiso   1.00
C6196  C     0.61758   0.59809   0.01520   0.00000  Uiso   1.00
O6197  O     0.62585   0.58088   0.02071   0.00000  Uiso   1.00
O6198  O     0.60820   0.61485   0.00991   0.00000  Uiso   1.00
C6199  C     0.05192   0.49920   0.71036   0.00000  Uiso   1.00
O6200  O     0.06572   0.51047   0.70169   0.00000  Uiso   1.00
O6201  O     0.03785   0.48858   0.72046   0.00000  Uiso   1.00
C6202  C     0.33769   0.94036   1.05955   0.00000  Uiso   1.00
O6203  O     0.32594   0.93329   1.04503   0.00000  Uiso   1.00
O6204  O     0.34906   0.94674   1.07455   0.00000  Uiso   1.00
C6205  C     0.35023   0.39548   1.16514   0.00000  Uiso   1.00
O6206  O     0.36826   0.40022   1.15833   0.00000  Uiso   1.00
O6207  O     0.33207   0.39095   1.17174   0.00000  Uiso   1.00
C6208  C     0.73750   0.14145   0.23875   0.00000  Uiso   1.00
O6209  O     0.75110   0.12766   0.23415   0.00000  Uiso   1.00
O6210  O     0.72331   0.15484   0.24411   0.00000  Uiso   1.00
C6211  C     0.12995   0.96997   1.20947   0.00000  Uiso   1.00
O6212  O     0.14701   0.96572   1.21972   0.00000  Uiso   1.00
O6213  O     0.11340   0.97443   1.19911   0.00000  Uiso   1.00
C6214  C     0.96334   0.23607   1.02756   0.00000  Uiso   1.00
O6215  O     0.96753   0.25494   1.03208   0.00000  Uiso   1.00
O6216  O     0.95986   0.21656   1.02272   0.00000  Uiso   1.00
C6217  C     0.90064   0.34112   0.50611   0.00000  Uiso   1.00
O6218  O     0.91518   0.34239   0.49264   0.00000  Uiso   1.00
O6219  O     0.88550   0.34006   0.51848   0.00000  Uiso   1.00
C6220  C     1.19853   0.90493   0.25690   0.00000  Uiso   1.00
O6221  O     1.20695   0.92163   0.26183   0.00000  Uiso   1.00
O6222  O     1.19147   0.88802   0.25054   0.00000  Uiso   1.00
C6223  C     0.24299   0.92355   0.15127   0.00000  Uiso   1.00
O6224  O     0.22395   0.91963   0.14768   0.00000  Uiso   1.00
O6225  O     0.26259   0.92637   0.15620   0.00000  Uiso   1.00
C6226  C     0.14344   1.10541   0.17155   0.00000  Uiso   1.00
O6227  O     0.13432   1.10019   0.15384   0.00000  Uiso   1.00
O6228  O     0.15021   1.11236   0.18898   0.00000  Uiso   1.00
C6229  C     0.81337   0.30872   0.51154   0.00000  Uiso   1.00
O6230  O     0.80195   0.29333   0.50970   0.00000  Uiso   1.00
O6231  O     0.82462   0.32503   0.51549   0.00000  Uiso   1.00
C6232  C     0.37486  -0.03214   0.28539   0.00000  Uiso   1.00
O6233  O     0.38195  -0.04008   0.26917   0.00000  Uiso   1.00
O6234  O     0.36608  -0.02428   0.30138   0.00000  Uiso   1.00
C6235  C     1.00602  -0.06429   0.41162   0.00000  Uiso   1.00
O6236  O     1.00080  -0.05128   0.42614   0.00000  Uiso   1.00
O6237  O     1.01177  -0.07817   0.39834   0.00000  Uiso   1.00
C6238  C     0.85132   0.98884  -0.23963   0.00000  Uiso   1.00
O6239  O     0.83656   0.99120  -0.25274   0.00000  Uiso   1.00
O6240  O     0.86616   0.98537  -0.22688   0.00000  Uiso   1.00
C6241  C     0.82608   0.33804   0.64560   0.00000  Uiso   1.00
O6242  O     0.81564   0.32195   0.63973   0.00000  Uiso   1.00
O6243  O     0.83871   0.35311   0.65125   0.00000  Uiso   1.00
C6244  C     0.80958   0.41958   0.21485   0.00000  Uiso   1.00
O6245  O     0.79424   0.40753   0.21935   0.00000  Uiso   1.00
O6246  O     0.82439   0.43319   0.21109   0.00000  Uiso   1.00
C6247  C     0.14387   0.71299   0.94838   0.00000  Uiso   1.00
O6248  O     0.15541   0.72885   0.94580   0.00000  Uiso   1.00
O6249  O     0.13111   0.69765   0.95071   0.00000  Uiso   1.00
C6250  C     0.24614   0.28707   0.34057   0.00000  Uiso   1.00
O6251  O     0.25174   0.27139   0.35121   0.00000  Uiso   1.00
O6252  O     0.24120   0.30235   0.32914   0.00000  Uiso   1.00
C6253  C     0.25115   0.85650   0.26058   0.00000  Uiso   1.00
O6254  O     0.26891   0.86197   0.25606   0.00000  Uiso   1.00
C6255  C     0.88336   0.17876   0.65720   0.00000  Uiso   1.00
O6256  O     0.88375   0.16376   0.67055   0.00000  Uiso   1.00
O6257  O     0.88312   0.19308   0.64305   0.00000  Uiso   1.00
C6258  C     0.95737   0.03597   0.98092   0.00000  Uiso   1.00
O6259  O     0.95570   0.05525   0.98503   0.00000  Uiso   1.00
O6260  O     0.96072   0.01681   0.97673   0.00000  Uiso   1.00
C6261  C     0.61332   0.89840   0.63661   0.00000  Uiso   1.00
O6262  O     0.60394   0.88431   0.64732   0.00000  Uiso   1.00
O6263  O     0.62288   0.91095   0.62441   0.00000  Uiso   1.00
C6264  C     0.06316   0.15563   0.89380   0.00000  Uiso   1.00
O6265  O     0.06433   0.17361   0.90214   0.00000  Uiso   1.00
O6266  O     0.06297   0.13759   0.88496   0.00000  Uiso   1.00
C6267  C     0.11820   0.01394   1.03716   0.00000  Uiso   1.00
O6268  O     0.10873   0.02981   1.03175   0.00000  Uiso   1.00
O6269  O     0.12699  -0.00290   1.04336   0.00000  Uiso   1.00
C6270  C     1.22191   0.75748  -0.07628   0.00000  Uiso   1.00
O6271  O     1.23970   0.74797  -0.07652   0.00000  Uiso   1.00
O6272  O     1.20475   0.76748  -0.07823   0.00000  Uiso   1.00
C6273  C     0.80406  -0.03609   0.78898   0.00000  Uiso   1.00
O6274  O     0.81525  -0.02336   0.79955   0.00000  Uiso   1.00
O6275  O     0.79251  -0.04843   0.77856   0.00000  Uiso   1.00
C6276  C     0.31710   0.51798   0.15029   0.00000  Uiso   1.00
O6277  O     0.33673   0.52220   0.14955   0.00000  Uiso   1.00
O6278  O     0.29788   0.51318   0.15140   0.00000  Uiso   1.00
C6279  C     0.90072   0.04460   0.09356   0.00000  Uiso   1.00
O6280  O     0.90959   0.05744   0.10553   0.00000  Uiso   1.00
O6281  O     0.89290   0.03247   0.08012   0.00000  Uiso   1.00
C6282  C     0.58842   1.12465   0.20971   0.00000  Uiso   1.00
O6283  O     0.58051   1.10973   0.19911   0.00000  Uiso   1.00
O6284  O     0.59728   1.13804   0.22128   0.00000  Uiso   1.00
C6285  C     0.23199   0.29505   1.08300   0.00000  Uiso   1.00
O6286  O     0.24063   0.30987   1.07338   0.00000  Uiso   1.00
O6287  O     0.22290   0.27968   1.09167   0.00000  Uiso   1.00
C6288  C    -0.05922   0.55496   0.39520   0.00000  Uiso   1.00
O6289  O    -0.07879   0.55937   0.39647   0.00000  Uiso   1.00
O6290  O    -0.03995   0.55089   0.39317   0.00000  Uiso   1.00
C6291  C     0.09792  -0.07926  -0.30900   0.00000  Uiso   1.00
O6292  O     0.08248  -0.08175  -0.29698   0.00000  Uiso   1.00
O6293  O     0.11277  -0.07588  -0.32133   0.00000  Uiso   1.00
C6294  C     0.32395   0.64259   0.85298   0.00000  Uiso   1.00
O6295  O     0.33964   0.64013   0.84072   0.00000  Uiso   1.00
O6296  O     0.30815   0.64483   0.86527   0.00000  Uiso   1.00
C6297  C     0.90634   1.01543  -0.16304   0.00000  Uiso   1.00
O6298  O     0.88962   1.01126  -0.17321   0.00000  Uiso   1.00
O6299  O     0.92398   1.01916  -0.15427   0.00000  Uiso   1.00
C6300  C     0.88732   0.68042   0.48147   0.00000  Uiso   1.00
O6301  O     0.87592   0.67169   0.46763   0.00000  Uiso   1.00
O6302  O     0.89841   0.68767   0.49624   0.00000  Uiso   1.00
C6303  C    -0.11667   0.11448   0.09441   0.00000  Uiso   1.00
O6304  O    -0.09926   0.10589   0.10068   0.00000  Uiso   1.00
O6305  O    -0.13383   0.12295   0.08789   0.00000  Uiso   1.00
C6306  C     0.03043   0.21676   0.45761   0.00000  Uiso   1.00
O6307  O     0.04211   0.20076   0.45431   0.00000  Uiso   1.00
O6308  O     0.01891   0.23258   0.46047   0.00000  Uiso   1.00
C6309  C     0.70311   0.84745   0.66839   0.00000  Uiso   1.00
O6310  O     0.71741   0.86157   0.66652   0.00000  Uiso   1.00
O6311  O     0.68941   0.83299   0.67031   0.00000  Uiso   1.00
C6312  C     0.56160   0.60871   1.05365   0.00000  Uiso   1.00
O6313  O     0.55808   0.62377   1.06609   0.00000  Uiso   1.00
O6314  O     0.56607   0.59346   1.04131   0.00000  Uiso   1.00
C6315  C     0.36545  -0.06233   0.89661   0.00000  Uiso   1.00
O6316  O     0.36501  -0.06632   0.87737   0.00000  Uiso   1.00
O6317  O     0.36518  -0.05687   0.91605   0.00000  Uiso   1.00
C6318  C     0.42388   0.44861   0.10061   0.00000  Uiso   1.00
O6319  O     0.42828   0.45482   0.11927   0.00000  Uiso   1.00
O6320  O     0.41925   0.44369   0.08274   0.00000  Uiso   1.00
C6321  C     0.28252   0.27463   0.72395   0.00000  Uiso   1.00
O6322  O     0.26461   0.28286   0.72044   0.00000  Uiso   1.00
O6323  O     0.29983   0.26505   0.72753   0.00000  Uiso   1.00
C6324  C     1.09512   0.33398   0.75408   0.00000  Uiso   1.00
O6325  O     1.11459   0.33096   0.75009   0.00000  Uiso   1.00
O6326  O     1.07607   0.33655   0.75766   0.00000  Uiso   1.00
C6327  C     0.81799  -0.12585   0.05620   0.00000  Uiso   1.00
O6328  O     0.82165  -0.11274   0.07073   0.00000  Uiso   1.00
O6329  O     0.81468  -0.14066   0.04364   0.00000  Uiso   1.00
C6330  C     0.82628   0.78290   0.88085   0.00000  Uiso   1.00
O6331  O     0.84548   0.78771   0.88395   0.00000  Uiso   1.00
O6332  O     0.80758   0.77723   0.87778   0.00000  Uiso   1.00
C6333  C    -0.04464   0.48970   0.53951   0.00000  Uiso   1.00
O6334  O    -0.03968   0.47007   0.53840   0.00000  Uiso   1.00
O6335  O    -0.04880   0.50865   0.53873   0.00000  Uiso   1.00
C6336  C     0.31103   0.98249   0.34421   0.00000  Uiso   1.00
O6337  O     0.31162   1.00226   0.34620   0.00000  Uiso   1.00
O6338  O     0.31115   0.96253   0.34189   0.00000  Uiso   1.00
C6339  C     0.64398   0.70062   0.17654   0.00000  Uiso   1.00
O6340  O     0.66197   0.70789   0.18296   0.00000  Uiso   1.00
O6341  O     0.62541   0.69501   0.17284   0.00000  Uiso   1.00
C6342  C     0.79651   0.90164   0.17059   0.00000  Uiso   1.00
O6343  O     0.78151   0.91111   0.17956   0.00000  Uiso   1.00
O6344  O     0.81212   0.89272   0.16163   0.00000  Uiso   1.00
C6345  C     0.56618   0.37144   0.94897   0.00000  Uiso   1.00
O6346  O     0.54924   0.36975   0.93847   0.00000  Uiso   1.00
O6347  O     0.58307   0.37287   0.95923   0.00000  Uiso   1.00
C6348  C     0.09447  -0.10598   0.21727   0.00000  Uiso   1.00
O6349  O     0.09399  -0.09450   0.23369   0.00000  Uiso   1.00
O6350  O     0.09534  -0.11694   0.20104   0.00000  Uiso   1.00
C6351  C     1.04314   0.55997   0.19251   0.00000  Uiso   1.00
O6352  O     1.05527   0.54530   0.19881   0.00000  Uiso   1.00
O6353  O     1.03029   0.57351   0.18537   0.00000  Uiso   1.00
C6354  C     0.65747   0.17073   0.14429   0.00000  Uiso   1.00
O6355  O     0.64388   0.16812   0.13013   0.00000  Uiso   1.00
O6356  O     0.67156   0.17258   0.15906   0.00000  Uiso   1.00
C6357  C    -0.05932   0.29235   0.12722   0.00000  Uiso   1.00
O6358  O    -0.06518   0.31128   0.12704   0.00000  Uiso   1.00
O6359  O    -0.05437   0.27338   0.12724   0.00000  Uiso   1.00
C6360  C     0.65076   0.47906  -0.04400   0.00000  Uiso   1.00
O6361  O     0.64996   0.49869  -0.04136   0.00000  Uiso   1.00
O6362  O     0.64876   0.45988  -0.04678   0.00000  Uiso   1.00
C6363  C     0.41618   0.73046   0.92754   0.00000  Uiso   1.00
O6364  O     0.40519   0.72816   0.91056   0.00000  Uiso   1.00
O6365  O     0.42753   0.73219   0.94403   0.00000  Uiso   1.00
C6366  C     0.50178   0.80847   0.83802   0.00000  Uiso   1.00
O6367  O     0.49329   0.80532   0.85561   0.00000  Uiso   1.00
O6368  O     0.51105   0.80918   0.82038   0.00000  Uiso   1.00
C6369  C     0.32076  -0.25605   0.18081   0.00000  Uiso   1.00
O6370  O     0.31636  -0.27512   0.17954   0.00000  Uiso   1.00
O6371  O     0.32458  -0.23617   0.18475   0.00000  Uiso   1.00
C6372  C     0.62316   0.61510   0.08462   0.00000  Uiso   1.00
O6373  O     0.62953   0.59952   0.07395   0.00000  Uiso   1.00
O6374  O     0.61799   0.63059   0.09571   0.00000  Uiso   1.00
C6375  C     0.56538   0.26817   0.22343   0.00000  Uiso   1.00
O6376  O     0.55988   0.25485   0.23711   0.00000  Uiso   1.00
O6377  O     0.56946   0.28209   0.20980   0.00000  Uiso   1.00
C6378  C     0.11627   0.46350  -0.15309   0.00000  Uiso   1.00
O6379  O     0.09710   0.45899  -0.15574   0.00000  Uiso   1.00
O6380  O     0.13558   0.46776  -0.15068   0.00000  Uiso   1.00
C6381  C     0.89755   0.73977  -0.18577   0.00000  Uiso   1.00
O6382  O     0.90949   0.75103  -0.19694   0.00000  Uiso   1.00
O6383  O     0.88503   0.72890  -0.17438   0.00000  Uiso   1.00
C6384  C    -0.19148   0.30469   0.36829   0.00000  Uiso   1.00
O6385  O    -0.20304   0.28919   0.36502   0.00000  Uiso   1.00
O6386  O    -0.17927   0.32003   0.37253   0.00000  Uiso   1.00
C6387  C     0.43243   0.91891   0.36213   0.00000  Uiso   1.00
O6388  O     0.44504   0.93196   0.37046   0.00000  Uiso   1.00
O6389  O     0.42045   0.90592   0.35323   0.00000  Uiso   1.00
C6390  C     1.00295   0.64345   0.39529   0.00000  Uiso   1.00
O6391  O     0.99054   0.63804   0.38077   0.00000  Uiso   1.00
O6392  O     1.01538   0.64899   0.40979   0.00000  Uiso   1.00
C6393  C     0.87917   0.95267  -0.00174   0.00000  Uiso   1.00
O6394  O     0.87897   0.94199  -0.01860   0.00000  Uiso   1.00
O6395  O     0.87877   0.96300   0.01454   0.00000  Uiso   1.00
C6396  C     0.08321   0.24882   0.37431   0.00000  Uiso   1.00
O6397  O     0.07803   0.24973   0.39345   0.00000  Uiso   1.00
O6398  O     0.08740   0.24783   0.35470   0.00000  Uiso   1.00
C6399  C     0.18463   0.33030   0.95209   0.00000  Uiso   1.00
O6400  O     0.18630   0.31051   0.95455   0.00000  Uiso   1.00
O6401  O     0.18337   0.34992   0.94816   0.00000  Uiso   1.00
C6402  C    -0.06976   0.22588   0.29709   0.00000  Uiso   1.00
O6403  O    -0.06436   0.21602   0.31354   0.00000  Uiso   1.00
O6404  O    -0.07420   0.23606   0.28000   0.00000  Uiso   1.00
C6405  C     0.84200   0.72332   0.37526   0.00000  Uiso   1.00
O6406  O     0.84703   0.74120   0.36820   0.00000  Uiso   1.00
O6407  O     0.83707   0.70521   0.38226   0.00000  Uiso   1.00
C6408  C     0.04359   0.44770   0.65626   0.00000  Uiso   1.00
O6409  O     0.04500   0.42842   0.66153   0.00000  Uiso   1.00
O6410  O     0.04274   0.46649   0.64945   0.00000  Uiso   1.00
C6411  C     0.01277   0.57137   0.41923   0.00000  Uiso   1.00
O6412  O     0.00325   0.55571   0.42640   0.00000  Uiso   1.00
O6413  O     0.02164   0.58723   0.41146   0.00000  Uiso   1.00
C6414  C     0.48771   0.68023   0.68952   0.00000  Uiso   1.00
O6415  O     0.46888   0.67834   0.69158   0.00000  Uiso   1.00
C6416  C     0.39949   0.45887  -0.12653   0.00000  Uiso   1.00
O6417  O     0.39401   0.47731  -0.12159   0.00000  Uiso   1.00
O6418  O     0.40439   0.44021  -0.13153   0.00000  Uiso   1.00
C6419  C     0.36195   0.49887   0.96271   0.00000  Uiso   1.00
O6420  O     0.34919   0.48865   0.95086   0.00000  Uiso   1.00
O6421  O     0.37519   0.51057   0.97156   0.00000  Uiso   1.00
C6422  C     0.43523  -0.21630   0.88854   0.00000  Uiso   1.00
O6423  O     0.45253  -0.20875   0.89450   0.00000  Uiso   1.00
O6424  O     0.41797  -0.22381   0.88215   0.00000  Uiso   1.00
C6425  C     0.54626   0.82399   0.21823   0.00000  Uiso   1.00
O6426  O     0.55955   0.83194   0.22999   0.00000  Uiso   1.00
O6427  O     0.53303   0.81554   0.20626   0.00000  Uiso   1.00
C6428  C     0.33001   0.82955   0.31359   0.00000  Uiso   1.00
O6429  O     0.34043   0.83216   0.29678   0.00000  Uiso   1.00
O6430  O     0.32007   0.82680   0.33035   0.00000  Uiso   1.00
C6431  C     0.11467   0.83830   0.54092   0.00000  Uiso   1.00
O6432  O     0.09637   0.83051   0.54347   0.00000  Uiso   1.00
O6433  O     0.13248   0.84668   0.53883   0.00000  Uiso   1.00
C6434  C     1.01655   0.44883   0.57200   0.00000  Uiso   1.00
O6435  O     1.00497   0.46368   0.57800   0.00000  Uiso   1.00
O6436  O     1.02814   0.43396   0.56587   0.00000  Uiso   1.00
C6437  C     0.58704   0.51588   0.93250   0.00000  Uiso   1.00
O6438  O     0.60101   0.50285   0.92648   0.00000  Uiso   1.00
O6439  O     0.57357   0.52883   0.93902   0.00000  Uiso   1.00
C6440  C     0.20635   0.05629   0.18893   0.00000  Uiso   1.00
O6441  O     0.21691   0.07133   0.18054   0.00000  Uiso   1.00
O6442  O     0.19655   0.04086   0.19748   0.00000  Uiso   1.00
C6443  C     0.60014   1.24876   0.91185   0.00000  Uiso   1.00
O6444  O     0.60249   1.23402   0.92509   0.00000  Uiso   1.00
O6445  O     0.59804   1.26290   0.89795   0.00000  Uiso   1.00
C6446  C     0.30469   0.17564   1.03673   0.00000  Uiso   1.00
O6447  O     0.30930   0.18122   1.05556   0.00000  Uiso   1.00
O6448  O     0.30071   0.17046   1.01771   0.00000  Uiso   1.00
C6449  C     0.02309  -0.25096   0.10703   0.00000  Uiso   1.00
O6450  O     0.01619  -0.23374   0.11371   0.00000  Uiso   1.00
O6451  O     0.02879  -0.26902   0.09986   0.00000  Uiso   1.00
C6452  C     0.93428   0.29539  -0.00053   0.00000  Uiso   1.00
O6453  O     0.92589   0.31202   0.00619   0.00000  Uiso   1.00
O6454  O     0.94224   0.27851  -0.00707   0.00000  Uiso   1.00
C6455  C     0.81288   1.12703   0.13032   0.00000  Uiso   1.00
O6456  O     0.81889   1.12578   0.11182   0.00000  Uiso   1.00
O6457  O     0.80622   1.12646   0.14920   0.00000  Uiso   1.00
C6458  C     0.25390   0.98489   0.37976   0.00000  Uiso   1.00
O6459  O     0.24131   0.99049   0.36467   0.00000  Uiso   1.00
O6460  O     0.26613   0.97948   0.39510   0.00000  Uiso   1.00
C6461  C     0.80593   0.32931   0.07939   0.00000  Uiso   1.00
O6462  O     0.80588   0.32732   0.09916   0.00000  Uiso   1.00
O6463  O     0.80723   0.33150   0.05968   0.00000  Uiso   1.00
C6464  C     0.87825   1.11842   0.83072   0.00000  Uiso   1.00
O6465  O     0.89241   1.12148   0.84432   0.00000  Uiso   1.00
O6466  O     0.86511   1.11474   0.81701   0.00000  Uiso   1.00
C6467  C     0.20623   0.49743   0.01878   0.00000  Uiso   1.00
O6468  O     0.20013   0.48566   0.00388   0.00000  Uiso   1.00
O6469  O     0.21269   0.50858   0.03331   0.00000  Uiso   1.00
C6470  C     0.79542   0.49547   1.16351   0.00000  Uiso   1.00
O6471  O     0.79880   0.50793   1.14864   0.00000  Uiso   1.00
O6472  O     0.79131   0.48291   1.17854   0.00000  Uiso   1.00
C6473  C     0.72008   0.20013   0.77185   0.00000  Uiso   1.00
O6474  O     0.71870   0.20202   0.79170   0.00000  Uiso   1.00
O6475  O     0.72156   0.19937   0.75242   0.00000  Uiso   1.00
C6476  C     0.86026   1.11138   0.60225   0.00000  Uiso   1.00
O6477  O     0.86153   1.12690   0.58996   0.00000  Uiso   1.00
O6478  O     0.85835   1.09581   0.61387   0.00000  Uiso   1.00
C6479  C     0.26699   0.14017   0.62883   0.00000  Uiso   1.00
O6480  O     0.27540   0.12262   0.62744   0.00000  Uiso   1.00
O6481  O     0.25810   0.15707   0.63311   0.00000  Uiso   1.00
C6482  C     0.16883   0.04798   0.65386   0.00000  Uiso   1.00
O6483  O     0.18348   0.05873   0.64511   0.00000  Uiso   1.00
O6484  O     0.15427   0.03898   0.66222   0.00000  Uiso   1.00
C6485  C     1.11881   0.70385   0.25879   0.00000  Uiso   1.00
O6486  O     1.11980   0.69755   0.24050   0.00000  Uiso   1.00
O6487  O     1.11658   0.71075   0.27723   0.00000  Uiso   1.00
C6488  C     0.10256   0.44135   0.56087   0.00000  Uiso   1.00
O6489  O     0.10094   0.45080   0.57865   0.00000  Uiso   1.00
O6490  O     0.10400   0.43320   0.54300   0.00000  Uiso   1.00
C6491  C     1.19117   0.96369   0.35902   0.00000  Uiso   1.00
O6492  O     1.17554   0.97467   0.36483   0.00000  Uiso   1.00
O6493  O     1.20717   0.95368   0.35342   0.00000  Uiso   1.00
C6494  C     0.25263  -0.08881   1.00487   0.00000  Uiso   1.00
O6495  O     0.24370  -0.07958   1.02051   0.00000  Uiso   1.00
O6496  O     0.26304  -0.09816   0.99043   0.00000  Uiso   1.00
C6497  C     0.13796   0.65922   0.91428   0.00000  Uiso   1.00
O6498  O     0.15433   0.66367   0.92480   0.00000  Uiso   1.00
O6499  O     0.12130   0.65273   0.90549   0.00000  Uiso   1.00
C6500  C     0.04670   0.44970  -0.05222   0.00000  Uiso   1.00
O6501  O     0.04999   0.43516  -0.03874   0.00000  Uiso   1.00
O6502  O     0.04463   0.46371  -0.06677   0.00000  Uiso   1.00
C6503  C     0.00476   0.69434   0.96573   0.00000  Uiso   1.00
O6504  O     0.01865   0.70462   0.97598   0.00000  Uiso   1.00
O6505  O    -0.00935   0.68573   0.95571   0.00000  Uiso   1.00
C6506  C     0.55576   1.00386   0.14211   0.00000  Uiso   1.00
O6507  O     0.54076   0.99082   0.14597   0.00000  Uiso   1.00
O6508  O     0.57055   1.01714   0.13979   0.00000  Uiso   1.00
C6509  C     0.74669   0.78864   1.08563   0.00000  Uiso   1.00
O6510  O     0.72983   0.78853   1.09610   0.00000  Uiso   1.00
O6511  O     0.76392   0.78812   1.07605   0.00000  Uiso   1.00
C6512  C     0.52023   1.02383   0.67891   0.00000  Uiso   1.00
O6513  O     0.50983   1.03991   0.67340   0.00000  Uiso   1.00
O6514  O     0.53114   1.00836   0.68473   0.00000  Uiso   1.00
C6515  C    -0.23818   0.75356   0.77684   0.00000  Uiso   1.00
O6516  O    -0.22918   0.73659   0.78387   0.00000  Uiso   1.00
O6517  O    -0.24704   0.76962   0.76944   0.00000  Uiso   1.00
C6518  C    -0.04304   0.10997   0.13628   0.00000  Uiso   1.00
O6519  O    -0.02605   0.12029   0.13927   0.00000  Uiso   1.00
O6520  O    -0.05803   0.09753   0.13247   0.00000  Uiso   1.00
C6521  C     0.72921   0.18541   0.01619   0.00000  Uiso   1.00
O6522  O     0.72876   0.17010   0.02889   0.00000  Uiso   1.00
O6523  O     0.73097   0.20137   0.00412   0.00000  Uiso   1.00
C6524  C    -0.02715   0.01506  -0.11304   0.00000  Uiso   1.00
O6525  O    -0.01657   0.02524  -0.09906   0.00000  Uiso   1.00
O6526  O    -0.03694   0.00345  -0.12591   0.00000  Uiso   1.00
C6527  C     0.17531   0.24724  -0.08846   0.00000  Uiso   1.00
O6528  O     0.17250   0.24392  -0.10779   0.00000  Uiso   1.00
O6529  O     0.17903   0.24999  -0.06904   0.00000  Uiso   1.00
C6530  C     0.42294   0.55046   0.10947   0.00000  Uiso   1.00
O6531  O     0.43653   0.53631   0.10896   0.00000  Uiso   1.00
O6532  O     0.40805   0.56371   0.10928   0.00000  Uiso   1.00
C6533  C     0.85137   0.05677   0.03897   0.00000  Uiso   1.00
O6534  O     0.86240   0.06744   0.05046   0.00000  Uiso   1.00
O6535  O     0.83966   0.04563   0.02766   0.00000  Uiso   1.00
C6536  C     0.71159  -0.02721   0.55737   0.00000  Uiso   1.00
O6537  O     0.72240  -0.03645   0.54306   0.00000  Uiso   1.00
O6538  O     0.70085  -0.01524   0.56834   0.00000  Uiso   1.00
C6539  C     0.46247   0.82015   0.20592   0.00000  Uiso   1.00
O6540  O     0.46250   0.83395   0.19162   0.00000  Uiso   1.00
O6541  O     0.46164   0.80546   0.22040   0.00000  Uiso   1.00
C6542  C     0.76649  -0.04333   0.37069   0.00000  Uiso   1.00
O6543  O     0.78245  -0.05468   0.37378   0.00000  Uiso   1.00
O6544  O     0.74964  -0.03476   0.36601   0.00000  Uiso   1.00
C6545  C     0.27466   0.34285   0.19632   0.00000  Uiso   1.00
O6546  O     0.26557   0.34517   0.17855   0.00000  Uiso   1.00
O6547  O     0.28335   0.34077   0.21419   0.00000  Uiso   1.00
C6548  C     1.07180   0.17619   0.22389   0.00000  Uiso   1.00
O6549  O     1.07182   0.19023   0.23848   0.00000  Uiso   1.00
O6550  O     1.07166   0.16171   0.20977   0.00000  Uiso   1.00
C6551  C     0.15108   0.63219   0.33256   0.00000  Uiso   1.00
O6552  O     0.16349   0.64023   0.31945   0.00000  Uiso   1.00
O6553  O     0.13816   0.62304   0.34499   0.00000  Uiso   1.00
C6554  C     0.41916   0.03159   0.10774   0.00000  Uiso   1.00
O6555  O     0.41768   0.02095   0.12427   0.00000  Uiso   1.00
O6556  O     0.42177   0.04063   0.08989   0.00000  Uiso   1.00
C6557  C     0.74267   0.03033   0.73500   0.00000  Uiso   1.00
O6558  O     0.73854   0.04877   0.72796   0.00000  Uiso   1.00
O6559  O     0.74707   0.01162   0.74093   0.00000  Uiso   1.00
C6560  C     0.50219   0.89141   0.19432   0.00000  Uiso   1.00
O6561  O     0.51036   0.90946   0.19179   0.00000  Uiso   1.00
O6562  O     0.49352   0.87364   0.19735   0.00000  Uiso   1.00
C6563  C    -0.01515   0.97889   0.63576   0.00000  Uiso   1.00
O6564  O    -0.01440   0.96358   0.64889   0.00000  Uiso   1.00
O6565  O    -0.01547   0.99308   0.62208   0.00000  Uiso   1.00
C6566  C     0.26416   0.79949   0.07720   0.00000  Uiso   1.00
O6567  O     0.25378   0.79118   0.09187   0.00000  Uiso   1.00
O6568  O     0.27480   0.80804   0.06230   0.00000  Uiso   1.00
C6569  C    -0.16165   0.98866   0.68285   0.00000  Uiso   1.00
O6570  O    -0.17664   1.00153   0.68707   0.00000  Uiso   1.00
O6571  O    -0.14704   0.97553   0.67935   0.00000  Uiso   1.00
C6572  C     0.28076   0.53206   0.03345   0.00000  Uiso   1.00
O6573  O     0.26757   0.53412   0.01865   0.00000  Uiso   1.00
O6574  O     0.29311   0.52940   0.04885   0.00000  Uiso   1.00
C6575  C     0.06875   0.16182   0.14164   0.00000  Uiso   1.00
O6576  O     0.08706   0.16974   0.14174   0.00000  Uiso   1.00
O6577  O     0.05118   0.15368   0.13952   0.00000  Uiso   1.00
C6578  C     0.20961   0.31929   0.29667   0.00000  Uiso   1.00
O6579  O     0.19674   0.32317   0.31125   0.00000  Uiso   1.00
O6580  O     0.22297   0.31546   0.28242   0.00000  Uiso   1.00
C6581  C     0.73459   0.36930  -0.03776   0.00000  Uiso   1.00
O6582  O     0.71774   0.37897  -0.03341   0.00000  Uiso   1.00
O6583  O     0.75213   0.36105  -0.04308   0.00000  Uiso   1.00
C6584  C     0.92888   0.67049   0.91605   0.00000  Uiso   1.00
O6585  O     0.94642   0.67801   0.91032   0.00000  Uiso   1.00
O6586  O     0.91155   0.66338   0.92249   0.00000  Uiso   1.00
C6587  C     0.98055   1.02479   0.32077   0.00000  Uiso   1.00
O6588  O     0.97988   1.04388   0.32641   0.00000  Uiso   1.00
O6589  O     0.98171   1.00580   0.31575   0.00000  Uiso   1.00
C6590  C     0.22001   0.96053   0.10176   0.00000  Uiso   1.00
O6591  O     0.21765   0.94743   0.08712   0.00000  Uiso   1.00
O6592  O     0.22090   0.97385   0.11640   0.00000  Uiso   1.00
C6593  C     1.03485   0.20337   0.31361   0.00000  Uiso   1.00
O6594  O     1.02328   0.21887   0.31846   0.00000  Uiso   1.00
O6595  O     1.04645   0.18729   0.30965   0.00000  Uiso   1.00
C6596  C     0.31906   0.54691  -0.05031   0.00000  Uiso   1.00
O6597  O     0.30395   0.53466  -0.05083   0.00000  Uiso   1.00
O6598  O     0.33407   0.55939  -0.04877   0.00000  Uiso   1.00
C6599  C     0.93659   0.22105   0.95618   0.00000  Uiso   1.00
O6600  O     0.92618   0.20543   0.94944   0.00000  Uiso   1.00
O6601  O     0.94730   0.23591   0.96369   0.00000  Uiso   1.00
C6602  C     0.44989   0.76973   1.17359   0.00000  Uiso   1.00
O6603  O     0.43290   0.77694   1.18095   0.00000  Uiso   1.00
O6604  O     0.46648   0.76156   1.16675   0.00000  Uiso   1.00
C6605  C     0.66154   0.16840   0.70411   0.00000  Uiso   1.00
O6606  O     0.67040   0.15738   0.71813   0.00000  Uiso   1.00
O6607  O     0.65180   0.17881   0.68976   0.00000  Uiso   1.00
C6608  C     0.39414  -0.03734   0.00147   0.00000  Uiso   1.00
O6609  O     0.38738  -0.05460   0.00881   0.00000  Uiso   1.00
O6610  O     0.40026  -0.01973  -0.00591   0.00000  Uiso   1.00
C6611  C     0.25299   0.64987   0.82937   0.00000  Uiso   1.00
O6612  O     0.24188   0.66477   0.83694   0.00000  Uiso   1.00
O6613  O     0.26527   0.63554   0.82340   0.00000  Uiso   1.00
C6614  C     0.92378   0.34032   0.84967   0.00000  Uiso   1.00
O6615  O     0.93376   0.35734   0.84558   0.00000  Uiso   1.00
O6616  O     0.91280   0.32441   0.85597   0.00000  Uiso   1.00
C6617  C     0.51986   0.57185  -0.10108   0.00000  Uiso   1.00
O6618  O     0.53837   0.57896  -0.10012   0.00000  Uiso   1.00
O6619  O     0.50088   0.56577  -0.10019   0.00000  Uiso   1.00
C6620  C     0.11849   0.12467   0.28408   0.00000  Uiso   1.00
O6621  O     0.13107   0.12086   0.29872   0.00000  Uiso   1.00
O6622  O     0.10502   0.12751   0.26996   0.00000  Uiso   1.00
C6623  C     0.32278   0.19373   0.54968   0.00000  Uiso   1.00
O6624  O     0.31253   0.17822   0.55605   0.00000  Uiso   1.00
O6625  O     0.33406   0.20863   0.54332   0.00000  Uiso   1.00
C6626  C     0.69357   0.25603   0.31983   0.00000  Uiso   1.00
O6627  O     0.67401   0.25127   0.32133   0.00000  Uiso   1.00
O6628  O     0.71307   0.26047   0.31845   0.00000  Uiso   1.00
C6629  C     0.64636   0.20025  -0.04530   0.00000  Uiso   1.00
O6630  O     0.64492   0.19224  -0.02700   0.00000  Uiso   1.00
O6631  O     0.64918   0.20769  -0.06370   0.00000  Uiso   1.00
C6632  C     0.59380   0.21977   0.28086   0.00000  Uiso   1.00
O6633  O     0.57400   0.21778   0.28352   0.00000  Uiso   1.00
O6634  O     0.61417   0.22337   0.27842   0.00000  Uiso   1.00
C6635  C     0.32370   0.30895   1.08733   0.00000  Uiso   1.00
O6636  O     0.34024   0.30529   1.09717   0.00000  Uiso   1.00
O6637  O     0.30655   0.31361   1.07858   0.00000  Uiso   1.00
C6638  C     0.18653   0.51905   0.16354   0.00000  Uiso   1.00
O6639  O     0.17473   0.52446   0.17863   0.00000  Uiso   1.00
O6640  O     0.19778   0.51398   0.14797   0.00000  Uiso   1.00
C6641  C     0.56523   1.04258   0.20928   0.00000  Uiso   1.00
O6642  O     0.57801   1.05190   0.19641   0.00000  Uiso   1.00
O6643  O     0.55319   1.03299   0.22151   0.00000  Uiso   1.00
C6644  C     0.23680   1.09414   0.11976   0.00000  Uiso   1.00
O6645  O     0.23922   1.08916   0.10061   0.00000  Uiso   1.00
O6646  O     0.23376   1.09856   0.13918   0.00000  Uiso   1.00
C6647  C     0.30119   0.14134   0.69031   0.00000  Uiso   1.00
O6648  O     0.31965   0.13410   0.68833   0.00000  Uiso   1.00
O6649  O     0.28252   0.14769   0.69163   0.00000  Uiso   1.00
C6650  C     0.01631   0.82424   0.47910   0.00000  Uiso   1.00
O6651  O     0.00507   0.83211   0.46453   0.00000  Uiso   1.00
O6652  O     0.02786   0.81776   0.49384   0.00000  Uiso   1.00
C6653  C     0.60074   0.42546   0.06232   0.00000  Uiso   1.00
O6654  O     0.61030   0.40851   0.05705   0.00000  Uiso   1.00
O6655  O     0.59168   0.44263   0.06562   0.00000  Uiso   1.00
C6656  C     0.94389   1.04261   0.67039   0.00000  Uiso   1.00
O6657  O     0.95996   1.03179   0.66566   0.00000  Uiso   1.00
O6658  O     0.92785   1.05340   0.67536   0.00000  Uiso   1.00
C6659  C     0.18929   0.22596  -0.28032   0.00000  Uiso   1.00
O6660  O     0.18197   0.23553  -0.29626   0.00000  Uiso   1.00
O6661  O     0.19617   0.21703  -0.26391   0.00000  Uiso   1.00
C6662  C     0.49243   0.88836   1.00199   0.00000  Uiso   1.00
O6663  O     0.48282   0.87525   0.98961   0.00000  Uiso   1.00
O6664  O     0.50293   0.90212   1.01273   0.00000  Uiso   1.00
C6665  C     0.80988   0.89542   0.52414   0.00000  Uiso   1.00
O6666  O     0.81758   0.87839   0.52945   0.00000  Uiso   1.00
O6667  O     0.80142   0.91224   0.51804   0.00000  Uiso   1.00
C6668  C     0.10640   1.41822   1.01250   0.00000  Uiso   1.00
O6669  O     0.09695   1.40388   1.00254   0.00000  Uiso   1.00
O6670  O     0.11598   1.43258   1.02256   0.00000  Uiso   1.00
C6671  C     0.67832  -0.10974   0.71398   0.00000  Uiso   1.00
O6672  O     0.68816  -0.09257   0.71541   0.00000  Uiso   1.00
O6673  O     0.66841  -0.12682   0.71163   0.00000  Uiso   1.00
C6674  C     0.28389   0.78856   1.13301   0.00000  Uiso   1.00
O6675  O     0.26989   0.79865   1.14345   0.00000  Uiso   1.00
O6676  O     0.29735   0.77827   1.12233   0.00000  Uiso   1.00
C6677  C     0.65348   0.06143   0.97440   0.00000  Uiso   1.00
O6678  O     0.66665   0.05611   0.96011   0.00000  Uiso   1.00
O6679  O     0.63953   0.06689   0.98783   0.00000  Uiso   1.00
C6680  C     0.67538   0.90552   0.48383   0.00000  Uiso   1.00
O6681  O     0.68448   0.88808   0.48750   0.00000  Uiso   1.00
O6682  O     0.66710   0.92299   0.47984   0.00000  Uiso   1.00
C6683  C     0.17000   0.73541   0.26461   0.00000  Uiso   1.00
O6684  O     0.17482   0.74192   0.28271   0.00000  Uiso   1.00
O6685  O     0.16278   0.73041   0.24644   0.00000  Uiso   1.00
C6686  C     0.93937   0.40610   0.65543   0.00000  Uiso   1.00
O6687  O     0.92642   0.42118   0.65263   0.00000  Uiso   1.00
O6688  O     0.95323   0.39180   0.65785   0.00000  Uiso   1.00
C6689  C     0.66363   0.80012   0.24729   0.00000  Uiso   1.00
O6690  O     0.67499   0.80578   0.23253   0.00000  Uiso   1.00
O6691  O     0.65525   0.79447   0.26477   0.00000  Uiso   1.00
C6692  C     0.64724  -0.08182   1.02351   0.00000  Uiso   1.00
O6693  O     0.66545  -0.07428   1.02083   0.00000  Uiso   1.00
O6694  O     0.62878  -0.08871   1.02747   0.00000  Uiso   1.00
C6695  C     0.50997   0.31783   0.92620   0.00000  Uiso   1.00
O6696  O     0.51268   0.33322   0.93842   0.00000  Uiso   1.00
O6697  O     0.50599   0.30238   0.91467   0.00000  Uiso   1.00
C6698  C     0.11501   0.53800   0.67639   0.00000  Uiso   1.00
O6699  O     0.13162   0.52788   0.67484   0.00000  Uiso   1.00
O6700  O     0.09802   0.54838   0.67765   0.00000  Uiso   1.00
C6701  C     0.40473   1.09546   0.34685   0.00000  Uiso   1.00
O6702  O     0.41155   1.11138   0.33668   0.00000  Uiso   1.00
O6703  O     0.39740   1.07970   0.35779   0.00000  Uiso   1.00
C6704  C     0.62446   0.69946  -0.07928   0.00000  Uiso   1.00
O6705  O     0.63125   0.71592  -0.08804   0.00000  Uiso   1.00
O6706  O     0.61880   0.68239  -0.07093   0.00000  Uiso   1.00
C6707  C     0.24406   0.07595   0.68710   0.00000  Uiso   1.00
O6708  O     0.23057   0.08771   0.67819   0.00000  Uiso   1.00
O6709  O     0.25699   0.06454   0.69685   0.00000  Uiso   1.00
C6710  C    -0.12712   0.79650   0.78666   0.00000  Uiso   1.00
O6711  O    -0.11963   0.79880   0.80488   0.00000  Uiso   1.00
O6712  O    -0.13340   0.79405   0.76810   0.00000  Uiso   1.00
C6713  C     0.87199   0.28327   0.25702   0.00000  Uiso   1.00
O6714  O     0.87573   0.29038   0.27540   0.00000  Uiso   1.00
O6715  O     0.86750   0.27555   0.23922   0.00000  Uiso   1.00
C6716  C     0.15652   0.93530   0.31999   0.00000  Uiso   1.00
O6717  O     0.14107   0.94754   0.31979   0.00000  Uiso   1.00
O6718  O     0.17130   0.92201   0.32090   0.00000  Uiso   1.00
C6719  C     0.24207   0.12455   0.35051   0.00000  Uiso   1.00
O6720  O     0.25134   0.14078   0.35678   0.00000  Uiso   1.00
O6721  O     0.23247   0.10834   0.34422   0.00000  Uiso   1.00
C6722  C     0.63620   0.79672   0.78221   0.00000  Uiso   1.00
O6723  O     0.62297   0.78467   0.79102   0.00000  Uiso   1.00
O6724  O     0.64958   0.80822   0.77385   0.00000  Uiso   1.00
C6725  C     0.45779   0.14259   0.41967   0.00000  Uiso   1.00
O6726  O     0.47218   0.12928   0.41577   0.00000  Uiso   1.00
O6727  O     0.44437   0.15667   0.42422   0.00000  Uiso   1.00
C6728  C     0.73618   1.02836   0.22678   0.00000  Uiso   1.00
O6729  O     0.73703   1.02919   0.24596   0.00000  Uiso   1.00
O6730  O     0.73476   1.02738   0.20699   0.00000  Uiso   1.00
C6731  C     0.49630   0.63560   0.99966   0.00000  Uiso   1.00
O6732  O     0.48515   0.62576   0.98666   0.00000  Uiso   1.00
O6733  O     0.50837   0.64485   1.01194   0.00000  Uiso   1.00
C6734  C    -0.03354   0.11812   0.40614   0.00000  Uiso   1.00
O6735  O    -0.02903   0.13369   0.39507   0.00000  Uiso   1.00
O6736  O    -0.04022   0.10275   0.41707   0.00000  Uiso   1.00
C6737  C     0.59642   0.12266   0.34987   0.00000  Uiso   1.00
O6738  O     0.61080   0.13583   0.35445   0.00000  Uiso   1.00
O6739  O     0.58257   0.10918   0.34514   0.00000  Uiso   1.00
C6740  C    -0.15540   0.33971   0.58301   0.00000  Uiso   1.00
O6741  O    -0.17118   0.35036   0.58959   0.00000  Uiso   1.00
O6742  O    -0.13995   0.32949   0.57538   0.00000  Uiso   1.00
C6743  C     0.91866   0.08686   0.50651   0.00000  Uiso   1.00
O6744  O     0.92438   0.10521   0.50553   0.00000  Uiso   1.00
O6745  O     0.91291   0.06743   0.50659   0.00000  Uiso   1.00
C6746  C     0.16938   0.41093   0.79182   0.00000  Uiso   1.00
O6747  O     0.16792   0.40741   0.81143   0.00000  Uiso   1.00
O6748  O     0.17143   0.41585   0.77308   0.00000  Uiso   1.00
C6749  C     0.53510   0.08286   0.56439   0.00000  Uiso   1.00
O6750  O     0.55406   0.08915   0.56444   0.00000  Uiso   1.00
O6751  O     0.51597   0.07775   0.56559   0.00000  Uiso   1.00
C6752  C     1.15023   0.73892   0.46863   0.00000  Uiso   1.00
O6753  O     1.15569   0.73089   0.45128   0.00000  Uiso   1.00
O6754  O     1.14495   0.74907   0.48481   0.00000  Uiso   1.00
C6755  C    -0.11705   0.41711   0.74876   0.00000  Uiso   1.00
O6756  O    -0.11711   0.43365   0.73732   0.00000  Uiso   1.00
O6757  O    -0.11817   0.40040   0.75994   0.00000  Uiso   1.00
C6758  C     0.32822   0.03643   0.71505   0.00000  Uiso   1.00
O6759  O     0.31850   0.03215   0.69819   0.00000  Uiso   1.00
O6760  O     0.34004   0.04028   0.73016   0.00000  Uiso   1.00
C6761  C     0.95918   0.15701   0.66558   0.00000  Uiso   1.00
O6762  O     0.95201   0.17451   0.65819   0.00000  Uiso   1.00
O6763  O     0.96520   0.13981   0.67360   0.00000  Uiso   1.00
C6764  C     0.41609   0.26294   0.05439   0.00000  Uiso   1.00
O6765  O     0.42068   0.25382   0.07231   0.00000  Uiso   1.00
O6766  O     0.41023   0.27281   0.03832   0.00000  Uiso   1.00
C6767  C     0.83632   0.87845   0.72683   0.00000  Uiso   1.00
O6768  O     0.85533   0.87687   0.72959   0.00000  Uiso   1.00
O6769  O     0.81651   0.88078   0.72245   0.00000  Uiso   1.00
C6770  C     0.81425   0.39738   0.28015   0.00000  Uiso   1.00
O6771  O     0.81406   0.41616   0.27321   0.00000  Uiso   1.00
O6772  O     0.81359   0.37825   0.28618   0.00000  Uiso   1.00
C6773  C     0.09148   0.52991   0.26128   0.00000  Uiso   1.00
O6774  O     0.10746   0.52145   0.26970   0.00000  Uiso   1.00
O6775  O     0.07571   0.53791   0.25182   0.00000  Uiso   1.00
C6776  C     0.09200   0.28616   0.92283   0.00000  Uiso   1.00
O6777  O     0.09374   0.27362   0.93847   0.00000  Uiso   1.00
O6778  O     0.08958   0.29975   0.90843   0.00000  Uiso   1.00
C6779  C     0.76522   0.08184   0.15760   0.00000  Uiso   1.00
O6780  O     0.75110   0.08736   0.14479   0.00000  Uiso   1.00
O6781  O     0.77850   0.07572   0.17106   0.00000  Uiso   1.00
C6782  C     0.04607   0.69843   0.59645   0.00000  Uiso   1.00
O6783  O     0.06191   0.68868   0.58949   0.00000  Uiso   1.00
O6784  O     0.02975   0.70713   0.60349   0.00000  Uiso   1.00
C6785  C     0.22086   1.01161   0.51635   0.00000  Uiso   1.00
O6786  O     0.20676   1.01726   0.52919   0.00000  Uiso   1.00
O6787  O     0.23467   1.00529   0.50341   0.00000  Uiso   1.00
C6788  C     0.13398   0.14627   0.50878   0.00000  Uiso   1.00
O6789  O     0.15258   0.14753   0.51583   0.00000  Uiso   1.00
O6790  O     0.11559   0.14464   0.50166   0.00000  Uiso   1.00
C6791  C     0.77011   0.65444  -0.16376   0.00000  Uiso   1.00
O6792  O     0.75679   0.66744  -0.15658   0.00000  Uiso   1.00
O6793  O     0.78013   0.63935  -0.17124   0.00000  Uiso   1.00
C6794  C     1.13200   0.61164   0.74235   0.00000  Uiso   1.00
O6795  O     1.11283   0.61659   0.74179   0.00000  Uiso   1.00
O6796  O     1.15112   0.60603   0.74424   0.00000  Uiso   1.00
C6797  C     0.56135   1.12935   0.63296   0.00000  Uiso   1.00
O6798  O     0.57981   1.13024   0.62524   0.00000  Uiso   1.00
O6799  O     0.54317   1.12883   0.64169   0.00000  Uiso   1.00
C6800  C     0.01342   0.51370   0.08241   0.00000  Uiso   1.00
O6801  O     0.00341   0.52040   0.09799   0.00000  Uiso   1.00
O6802  O     0.02427   0.50639   0.06747   0.00000  Uiso   1.00
C6803  C     0.86353   0.52944   0.31958   0.00000  Uiso   1.00
O6804  O     0.86196   0.54928   0.32167   0.00000  Uiso   1.00
O6805  O     0.86516   0.50983   0.31717   0.00000  Uiso   1.00
C6806  C     0.14157   0.62004   0.10200   0.00000  Uiso   1.00
O6807  O     0.13528   0.61177   0.11932   0.00000  Uiso   1.00
O6808  O     0.14667   0.62839   0.08467   0.00000  Uiso   1.00
C6809  C     0.24763   0.65962   0.94435   0.00000  Uiso   1.00
O6810  O     0.23951   0.66098   0.92649   0.00000  Uiso   1.00
O6811  O     0.25479   0.65502   0.96271   0.00000  Uiso   1.00
C6812  C     1.07354   0.09831   0.22859   0.00000  Uiso   1.00
O6813  O     1.08290   0.11493   0.22286   0.00000  Uiso   1.00
O6814  O     1.06454   0.08124   0.23434   0.00000  Uiso   1.00
C6815  C     0.99342   0.43567  -0.00118   0.00000  Uiso   1.00
O6816  O     1.00678   0.43319   0.01356   0.00000  Uiso   1.00
O6817  O     0.97949   0.43807  -0.01545   0.00000  Uiso   1.00
C6818  C    -0.09812  -0.09523   0.85461   0.00000  Uiso   1.00
O6819  O    -0.10298  -0.09422   0.83523   0.00000  Uiso   1.00
O6820  O    -0.09355  -0.09700   0.87337   0.00000  Uiso   1.00
C6821  C     0.11540   0.80650   0.60562   0.00000  Uiso   1.00
O6822  O     0.13314   0.80615   0.59778   0.00000  Uiso   1.00
O6823  O     0.09756   0.80679   0.61426   0.00000  Uiso   1.00
C6824  C     0.90339   0.89504   0.51041   0.00000  Uiso   1.00
O6825  O     0.89596   0.89194   0.52867   0.00000  Uiso   1.00
O6826  O     0.91030   0.89848   0.49211   0.00000  Uiso   1.00
C6827  C     0.97739   0.46032   0.63977   0.00000  Uiso   1.00
O6828  O     0.98643   0.45634   0.62263   0.00000  Uiso   1.00
O6829  O     0.96884   0.46393   0.65738   0.00000  Uiso   1.00
C6830  C     0.87612   0.74092   1.22676   0.00000  Uiso   1.00
O6831  O     0.86867   0.75506   1.23875   0.00000  Uiso   1.00
O6832  O     0.88440   0.72731   1.21472   0.00000  Uiso   1.00
C6833  C     0.72811   0.04845   0.86178   0.00000  Uiso   1.00
O6834  O     0.72996   0.04804   0.84233   0.00000  Uiso   1.00
O6835  O     0.72484   0.05059   0.88129   0.00000  Uiso   1.00
C6836  C     0.66999   0.12074   0.79416   0.00000  Uiso   1.00
O6837  O     0.67872   0.10384   0.78860   0.00000  Uiso   1.00
O6838  O     0.66223   0.13801   0.80000   0.00000  Uiso   1.00
C6839  C     0.60558  -0.07628   0.44168   0.00000  Uiso   1.00
O6840  O     0.59750  -0.05946   0.44803   0.00000  Uiso   1.00
O6841  O     0.61394  -0.09365   0.43567   0.00000  Uiso   1.00
C6842  C     0.90192   0.47016   0.78789   0.00000  Uiso   1.00
O6843  O     0.92061   0.47665   0.79074   0.00000  Uiso   1.00
O6844  O     0.88302   0.46446   0.78466   0.00000  Uiso   1.00
C6845  C     0.81147   0.28121   0.57556   0.00000  Uiso   1.00
O6846  O     0.81725   0.27609   0.55673   0.00000  Uiso   1.00
O6847  O     0.80780   0.28491   0.59456   0.00000  Uiso   1.00
C6848  C     0.60821   0.23359   0.17685   0.00000  Uiso   1.00
O6849  O     0.59145   0.23940   0.16705   0.00000  Uiso   1.00
O6850  O     0.62524   0.22923   0.18623   0.00000  Uiso   1.00
C6851  C    -0.05884   0.78866   0.34149   0.00000  Uiso   1.00
O6852  O    -0.06187   0.77757   0.35778   0.00000  Uiso   1.00
O6853  O    -0.05656   0.79928   0.32420   0.00000  Uiso   1.00
C6854  C     0.16490   0.04505   0.30042   0.00000  Uiso   1.00
O6855  O     0.14647   0.03943   0.30584   0.00000  Uiso   1.00
O6856  O     0.18340   0.05045   0.29492   0.00000  Uiso   1.00
C6857  C     0.07268   0.88497   0.88491   0.00000  Uiso   1.00
O6858  O     0.05324   0.88208   0.88260   0.00000  Uiso   1.00
O6859  O     0.09264   0.88830   0.88693   0.00000  Uiso   1.00
C6860  C     0.84443   0.67435  -0.15522   0.00000  Uiso   1.00
O6861  O     0.83796   0.69243  -0.16176   0.00000  Uiso   1.00
O6862  O     0.84874   0.65604  -0.14766   0.00000  Uiso   1.00
C6863  C     0.90772   0.66052   0.12059   0.00000  Uiso   1.00
O6864  O     0.90191   0.64454   0.10977   0.00000  Uiso   1.00
O6865  O     0.91140   0.67654   0.13299   0.00000  Uiso   1.00
C6866  C     0.48058   0.13971   0.90104   0.00000  Uiso   1.00
O6867  O     0.46997   0.14697   0.91619   0.00000  Uiso   1.00
O6868  O     0.49116   0.13223   0.88604   0.00000  Uiso   1.00
C6869  C     0.52596  -0.04692   0.70047   0.00000  Uiso   1.00
O6870  O     0.51976  -0.04440   0.71914   0.00000  Uiso   1.00
O6871  O     0.53343  -0.04898   0.68194   0.00000  Uiso   1.00
C6872  C     0.81632   0.10840   0.79299   0.00000  Uiso   1.00
O6873  O     0.82296   0.10056   0.77540   0.00000  Uiso   1.00
O6874  O     0.80900   0.11578   0.81043   0.00000  Uiso   1.00
C6875  C    -0.11899   0.02015   0.99656   0.00000  Uiso   1.00
O6876  O    -0.12536   0.01383   0.97883   0.00000  Uiso   1.00
O6877  O    -0.11234   0.02663   1.01395   0.00000  Uiso   1.00
C6878  C     1.27884   0.73157   0.03451   0.00000  Uiso   1.00
O6879  O     1.29677   0.73863   0.02933   0.00000  Uiso   1.00
O6880  O     1.26072   0.72604   0.04042   0.00000  Uiso   1.00
C6881  C     0.16049   0.76638   0.19106   0.00000  Uiso   1.00
O6882  O     0.17954   0.77177   0.19191   0.00000  Uiso   1.00
O6883  O     0.14161   0.76042   0.18916   0.00000  Uiso   1.00
C6884  C     0.76374   0.02638   0.90768   0.00000  Uiso   1.00
O6885  O     0.75027   0.01351   0.91476   0.00000  Uiso   1.00
O6886  O     0.77732   0.03971   0.90091   0.00000  Uiso   1.00
C6887  C     0.21520   0.13297   0.84422   0.00000  Uiso   1.00
O6888  O     0.19801   0.14188   0.83803   0.00000  Uiso   1.00
O6889  O     0.23235   0.12487   0.85061   0.00000  Uiso   1.00
C6890  C     0.20440  -0.12452   0.48823   0.00000  Uiso   1.00
O6891  O     0.18673  -0.11694   0.48227   0.00000  Uiso   1.00
O6892  O     0.22101  -0.13350   0.49465   0.00000  Uiso   1.00
C6893  C     0.55290   0.70771   0.12065   0.00000  Uiso   1.00
O6894  O     0.56947   0.69790   0.11417   0.00000  Uiso   1.00
O6895  O     0.53636   0.71699   0.12777   0.00000  Uiso   1.00
C6896  C     0.78310   0.18680  -0.14197   0.00000  Uiso   1.00
O6897  O     0.77858   0.16994  -0.15234   0.00000  Uiso   1.00
O6898  O     0.78807   0.20277  -0.13156   0.00000  Uiso   1.00
C6899  C     0.10080   0.57512   0.60152   0.00000  Uiso   1.00
O6900  O     0.09614   0.57283   0.62090   0.00000  Uiso   1.00
O6901  O     0.10581   0.57739   0.58224   0.00000  Uiso   1.00
C6902  C    -0.00905   0.19925   1.17009   0.00000  Uiso   1.00
O6903  O     0.00777   0.18891   1.16630   0.00000  Uiso   1.00
O6904  O    -0.02534   0.21073   1.17304   0.00000  Uiso   1.00
C6905  C     0.66055   0.07008   0.29665   0.00000  Uiso   1.00
O6906  O     0.67543   0.06549   0.28456   0.00000  Uiso   1.00
O6907  O     0.64643   0.07156   0.31115   0.00000  Uiso   1.00
C6908  C     0.33467  -0.23243   0.95088   0.00000  Uiso   1.00
O6909  O     0.35160  -0.24061   0.94430   0.00000  Uiso   1.00
O6910  O     0.31804  -0.22359   0.95844   0.00000  Uiso   1.00
C6911  C     0.42377   0.15809   0.83466   0.00000  Uiso   1.00
O6912  O     0.43014   0.17308   0.84604   0.00000  Uiso   1.00
O6913  O     0.41806   0.14421   0.82181   0.00000  Uiso   1.00
C6914  C     0.59705   0.11852   0.27775   0.00000  Uiso   1.00
O6915  O     0.60778   0.10167   0.28054   0.00000  Uiso   1.00
O6916  O     0.58657   0.13540   0.27459   0.00000  Uiso   1.00
C6917  C     0.04718   1.03269   0.87165   0.00000  Uiso   1.00
O6918  O     0.06633   1.03555   0.86814   0.00000  Uiso   1.00
O6919  O     0.02777   1.03002   0.87308   0.00000  Uiso   1.00
C6920  C     0.45433   0.22006   0.21226   0.00000  Uiso   1.00
O6921  O     0.45457   0.23657   0.22268   0.00000  Uiso   1.00
O6922  O     0.45429   0.20385   0.20151   0.00000  Uiso   1.00
C6923  C     0.69010   0.70716   0.12159   0.00000  Uiso   1.00
O6924  O     0.68241   0.71903   0.13531   0.00000  Uiso   1.00
O6925  O     0.69995   0.69657   0.10799   0.00000  Uiso   1.00
C6926  C     0.67396   0.01252   0.06263   0.00000  Uiso   1.00
O6927  O     0.66989  -0.00689   0.06376   0.00000  Uiso   1.00
O6928  O     0.67932   0.03166   0.06092   0.00000  Uiso   1.00
C6929  C     0.53537   0.95139   0.03686   0.00000  Uiso   1.00
O6930  O     0.52065   0.95475   0.02393   0.00000  Uiso   1.00
O6931  O     0.55029   0.94736   0.04987   0.00000  Uiso   1.00
C6932  C    -0.18206   0.19625   0.45551   0.00000  Uiso   1.00
O6933  O    -0.19146   0.18550   0.46965   0.00000  Uiso   1.00
O6934  O    -0.17088   0.20523   0.44149   0.00000  Uiso   1.00
C6935  C     0.92099   0.26141   0.63130   0.00000  Uiso   1.00
O6936  O     0.91824   0.25046   0.64799   0.00000  Uiso   1.00
O6937  O     0.92303   0.27278   0.61487   0.00000  Uiso   1.00
C6938  C     0.26134   0.22083   0.75534   0.00000  Uiso   1.00
O6939  O     0.24932   0.21249   0.74152   0.00000  Uiso   1.00
O6940  O     0.27404   0.22903   0.76838   0.00000  Uiso   1.00
C6941  C     1.01357   0.49407   0.41066   0.00000  Uiso   1.00
O6942  O     1.02245   0.47793   0.40333   0.00000  Uiso   1.00
O6943  O     1.00406   0.50990   0.41786   0.00000  Uiso   1.00
C6944  C     0.76834   0.18586   0.07799   0.00000  Uiso   1.00
O6945  O     0.75741   0.19741   0.08972   0.00000  Uiso   1.00
O6946  O     0.77910   0.17446   0.06576   0.00000  Uiso   1.00
C6947  C    -0.08732   0.53744   0.45904   0.00000  Uiso   1.00
O6948  O    -0.07290   0.54142   0.44592   0.00000  Uiso   1.00
O6949  O    -0.10162   0.53293   0.47210   0.00000  Uiso   1.00
C6950  C     0.68558   0.94176   0.83473   0.00000  Uiso   1.00
O6951  O     0.68437   0.92344   0.84239   0.00000  Uiso   1.00
O6952  O     0.68561   0.96001   0.82636   0.00000  Uiso   1.00
C6953  C     0.89976   0.28395   0.68610   0.00000  Uiso   1.00
O6954  O     0.90797   0.26587   0.68874   0.00000  Uiso   1.00
O6955  O     0.89353   0.30258   0.68298   0.00000  Uiso   1.00
C6956  C     0.99648   0.29551   0.55855   0.00000  Uiso   1.00
O6957  O     1.00616   0.29426   0.57608   0.00000  Uiso   1.00
O6958  O     0.98659   0.29737   0.54119   0.00000  Uiso   1.00
C6959  C     0.63906   0.17254   0.48594   0.00000  Uiso   1.00
O6960  O     0.63510   0.17877   0.50459   0.00000  Uiso   1.00
O6961  O     0.64284   0.16552   0.46743   0.00000  Uiso   1.00
C6962  C     0.04603   0.08847   0.74898   0.00000  Uiso   1.00
O6963  O     0.04803   0.07558   0.76411   0.00000  Uiso   1.00
O6964  O     0.04407   0.10088   0.73343   0.00000  Uiso   1.00
C6965  C     0.45606   0.64901   0.91672   0.00000  Uiso   1.00
O6966  O     0.46776   0.63485   0.92435   0.00000  Uiso   1.00
O6967  O     0.44302   0.66334   0.91042   0.00000  Uiso   1.00
C6968  C     0.87951   0.39593   1.12526   0.00000  Uiso   1.00
O6969  O     0.87344   0.40377   1.14244   0.00000  Uiso   1.00
O6970  O     0.88566   0.38910   1.10758   0.00000  Uiso   1.00
C6971  C     0.09009   0.49214   0.98502   0.00000  Uiso   1.00
O6972  O     0.10945   0.49754   0.98720   0.00000  Uiso   1.00
O6973  O     0.07129   0.48590   0.98416   0.00000  Uiso   1.00
C6974  C     0.95303   1.10052   0.70590   0.00000  Uiso   1.00
O6975  O     0.96826   1.09115   0.69689   0.00000  Uiso   1.00
O6976  O     0.93741   1.10875   0.71488   0.00000  Uiso   1.00
C6977  C     0.82053   0.32613   0.30255   0.00000  Uiso   1.00
O6978  O     0.82818   0.33920   0.31551   0.00000  Uiso   1.00
O6979  O     0.81242   0.31251   0.29044   0.00000  Uiso   1.00
C6980  C     0.74839   0.03524   0.98324   0.00000  Uiso   1.00
O6981  O     0.76730   0.04183   0.98149   0.00000  Uiso   1.00
O6982  O     0.72976   0.02895   0.98500   0.00000  Uiso   1.00
C6983  C    -0.15052   0.11119   0.22377   0.00000  Uiso   1.00
O6984  O    -0.16052   0.12786   0.21676   0.00000  Uiso   1.00
O6985  O    -0.14246   0.09593   0.23287   0.00000  Uiso   1.00
C6986  C    -0.08636   0.11891   0.38419   0.00000  Uiso   1.00
O6987  O    -0.08698   0.13330   0.37037   0.00000  Uiso   1.00
O6988  O    -0.08562   0.10443   0.39756   0.00000  Uiso   1.00
C6989  C     0.48006   1.41519   0.88218   0.00000  Uiso   1.00
O6990  O     0.46770   1.39983   0.87910   0.00000  Uiso   1.00
O6991  O     0.49282   1.43033   0.88368   0.00000  Uiso   1.00
C6992  C     0.23044   0.90995   0.43513   0.00000  Uiso   1.00
O6993  O     0.23259   0.91501   0.41564   0.00000  Uiso   1.00
O6994  O     0.22772   0.90615   0.45440   0.00000  Uiso   1.00
C6995  C     0.91507   0.45830   0.02688   0.00000  Uiso   1.00
O6996  O     0.90611   0.45350   0.00975   0.00000  Uiso   1.00
O6997  O     0.92449   0.46241   0.04403   0.00000  Uiso   1.00
C6998  C     0.61940   0.30065   0.20269   0.00000  Uiso   1.00
O6999  O     0.61771   0.29014   0.18625   0.00000  Uiso   1.00
O7000  O     0.62039   0.31184   0.21960   0.00000  Uiso   1.00
C7001  C    -0.00334   0.40594   0.52236   0.00000  Uiso   1.00
O7002  O    -0.00013   0.38832   0.53093   0.00000  Uiso   1.00
O7003  O    -0.00568   0.42426   0.51467   0.00000  Uiso   1.00
C7004  C     0.84008  -0.20479   0.34321   0.00000  Uiso   1.00
O7005  O     0.85282  -0.20655   0.32802   0.00000  Uiso   1.00
O7006  O     0.82708  -0.20367   0.35818   0.00000  Uiso   1.00
C7007  C     0.26539   0.89230   0.80928   0.00000  Uiso   1.00
O7008  O     0.25500   0.90860   0.80582   0.00000  Uiso   1.00
O7009  O     0.27674   0.87700   0.81216   0.00000  Uiso   1.00
C7010  C     0.89741   0.24611   0.44836   0.00000  Uiso   1.00
O7011  O     0.88767   0.22907   0.45270   0.00000  Uiso   1.00
O7012  O     0.90823   0.26257   0.44403   0.00000  Uiso   1.00
C7013  C     0.87286   1.04160   0.37067   0.00000  Uiso   1.00
O7014  O     0.88559   1.04253   0.38604   0.00000  Uiso   1.00
O7015  O     0.85933   1.04147   0.35610   0.00000  Uiso   1.00
C7016  C     0.31876   0.59268   0.15494   0.00000  Uiso   1.00
O7017  O     0.33344   0.60349   0.14753   0.00000  Uiso   1.00
O7018  O     0.30345   0.58191   0.16132   0.00000  Uiso   1.00
C7019  C     0.11389   0.95015   0.39280   0.00000  Uiso   1.00
O7020  O     0.12249   0.93954   0.40799   0.00000  Uiso   1.00
O7021  O     0.10527   0.96032   0.37788   0.00000  Uiso   1.00
C7022  C     0.88297   0.87591   0.62023   0.00000  Uiso   1.00
O7023  O     0.88334   0.87776   0.60040   0.00000  Uiso   1.00
O7024  O     0.88275   0.87435   0.64018   0.00000  Uiso   1.00
C7025  C     0.88932   0.40718   0.53555   0.00000  Uiso   1.00
O7026  O     0.89344   0.42609   0.53326   0.00000  Uiso   1.00
O7027  O     0.88715   0.38747   0.53792   0.00000  Uiso   1.00
C7028  C     0.28570   0.12398  -0.02323   0.00000  Uiso   1.00
O7029  O     0.27141   0.11069  -0.01944   0.00000  Uiso   1.00
O7030  O     0.29938   0.13791  -0.02600   0.00000  Uiso   1.00
C7031  C     0.74362   0.73437   0.13677   0.00000  Uiso   1.00
O7032  O     0.74121   0.75162   0.12733   0.00000  Uiso   1.00
O7033  O     0.74694   0.71675   0.14559   0.00000  Uiso   1.00
C7034  C     0.63808   0.63787   0.95081   0.00000  Uiso   1.00
O7035  O     0.62871   0.62376   0.96202   0.00000  Uiso   1.00
O7036  O     0.64794   0.65160   0.93926   0.00000  Uiso   1.00
C7037  C     1.18642   0.68456   0.87823   0.00000  Uiso   1.00
O7038  O     1.17851   0.68630   0.86006   0.00000  Uiso   1.00
O7039  O     1.19371   0.68280   0.89640   0.00000  Uiso   1.00
C7040  C     0.65241   0.21310   0.77090   0.00000  Uiso   1.00
O7041  O     0.64316   0.19548   0.76954   0.00000  Uiso   1.00
O7042  O     0.66266   0.22984   0.77109   0.00000  Uiso   1.00
C7043  C     0.11228   0.48772   0.62895   0.00000  Uiso   1.00
O7044  O     0.12590   0.49013   0.61418   0.00000  Uiso   1.00
O7045  O     0.09966   0.48489   0.64458   0.00000  Uiso   1.00
C7046  C     0.84580   0.18831   0.21349   0.00000  Uiso   1.00
O7047  O     0.85656   0.17620   0.22504   0.00000  Uiso   1.00
O7048  O     0.83472   0.20035   0.20277   0.00000  Uiso   1.00
C7049  C     0.04813   0.00070   0.41956   0.00000  Uiso   1.00
O7050  O     0.04441   0.01525   0.43249   0.00000  Uiso   1.00
O7051  O     0.05382  -0.01374   0.40872   0.00000  Uiso   1.00
C7052  C     0.16764   1.10641  -0.42599   0.00000  Uiso   1.00
O7053  O     0.17035   1.11858  -0.41019   0.00000  Uiso   1.00
O7054  O     0.16451   1.09449  -0.44213   0.00000  Uiso   1.00
C7055  C     0.96244   0.41066   0.92651   0.00000  Uiso   1.00
O7056  O     0.96372   0.42219   0.94285   0.00000  Uiso   1.00
O7057  O     0.96064   0.39755   0.91141   0.00000  Uiso   1.00
C7058  C     0.79789   0.72429   0.29937   0.00000  Uiso   1.00
O7059  O     0.78463   0.72468   0.28447   0.00000  Uiso   1.00
O7060  O     0.81089   0.72429   0.31466   0.00000  Uiso   1.00
C7061  C     0.76349   0.63864   0.02619   0.00000  Uiso   1.00
O7062  O     0.76699   0.63307   0.00732   0.00000  Uiso   1.00
O7063  O     0.76067   0.64408   0.04530   0.00000  Uiso   1.00
C7064  C     0.62258  -0.08527   0.36701   0.00000  Uiso   1.00
O7065  O     0.60779  -0.09382   0.37725   0.00000  Uiso   1.00
O7066  O     0.63808  -0.07704   0.35758   0.00000  Uiso   1.00
C7067  C     0.70165   0.10644   0.48311   0.00000  Uiso   1.00
O7068  O     0.70932   0.09996   0.50030   0.00000  Uiso   1.00
O7069  O     0.69263   0.11325   0.46634   0.00000  Uiso   1.00
C7070  C     0.21001   0.59419   0.03423   0.00000  Uiso   1.00
O7071  O     0.20069   0.59052   0.05194   0.00000  Uiso   1.00
O7072  O     0.21834   0.59745   0.01622   0.00000  Uiso   1.00
C7073  C     0.13561   0.95487   0.91417   0.00000  Uiso   1.00
O7074  O     0.15231   0.96158   0.92262   0.00000  Uiso   1.00
O7075  O     0.11870   0.94862   0.90544   0.00000  Uiso   1.00
C7076  C     0.90459   0.60503   0.89142   0.00000  Uiso   1.00
O7077  O     0.88588   0.59803   0.89029   0.00000  Uiso   1.00
O7078  O     0.92358   0.61111   0.89105   0.00000  Uiso   1.00
C7079  C     0.13079   0.96997   0.84811   0.00000  Uiso   1.00
O7080  O     0.13816   0.95664   0.83516   0.00000  Uiso   1.00
O7081  O     0.12322   0.98369   0.86028   0.00000  Uiso   1.00
C7082  C     0.12898   0.37384   0.45124   0.00000  Uiso   1.00
O7083  O     0.12122   0.35612   0.45623   0.00000  Uiso   1.00
O7084  O     0.13601   0.39143   0.44553   0.00000  Uiso   1.00
C7085  C     0.67857   0.78238  -0.04091   0.00000  Uiso   1.00
O7086  O     0.66842   0.79437  -0.05241   0.00000  Uiso   1.00
O7087  O     0.68887   0.76962  -0.02898   0.00000  Uiso   1.00
C7088  C     0.23633   0.70821   0.76111   0.00000  Uiso   1.00
O7089  O     0.24544   0.70474   0.77847   0.00000  Uiso   1.00
O7090  O     0.22838   0.71080   0.74279   0.00000  Uiso   1.00
C7091  C     0.12715   0.72874   0.83590   0.00000  Uiso   1.00
O7092  O     0.12866   0.74836   0.83370   0.00000  Uiso   1.00
O7093  O     0.12502   0.70899   0.83860   0.00000  Uiso   1.00
C7094  C     0.99162   0.32964  -0.12219   0.00000  Uiso   1.00
O7095  O     0.99775   0.31066  -0.11783   0.00000  Uiso   1.00
O7096  O     0.98562   0.34739  -0.12976   0.00000  Uiso   1.00
C7097  C     0.29774   0.45531   0.15410   0.00000  Uiso   1.00
O7098  O     0.30764   0.46441   0.14004   0.00000  Uiso   1.00
O7099  O     0.28842   0.44567   0.16911   0.00000  Uiso   1.00
C7100  C     0.22476   0.23451   0.28388   0.00000  Uiso   1.00
O7101  O     0.23936   0.23378   0.29737   0.00000  Uiso   1.00
O7102  O     0.21025   0.23335   0.27103   0.00000  Uiso   1.00
C7103  C     0.09169   0.68376   0.74214   0.00000  Uiso   1.00
O7104  O     0.09382   0.69099   0.76055   0.00000  Uiso   1.00
O7105  O     0.09042   0.67654   0.72359   0.00000  Uiso   1.00
C7106  C     0.89242   0.10379   0.76412   0.00000  Uiso   1.00
O7107  O     0.91018   0.11315   0.76350   0.00000  Uiso   1.00
O7108  O     0.87417   0.09534   0.76571   0.00000  Uiso   1.00
C7109  C     0.83732   0.17983   0.83472   0.00000  Uiso   1.00
O7110  O     0.84309   0.19328   0.84886   0.00000  Uiso   1.00
O7111  O     0.83207   0.16635   0.82084   0.00000  Uiso   1.00
C7112  C     0.50546   0.03763   0.37481   0.00000  Uiso   1.00
O7113  O     0.51023   0.04349   0.35596   0.00000  Uiso   1.00
O7114  O     0.49811   0.03060   0.39162   0.00000  Uiso   1.00
C7115  C     0.69099   0.14848   0.07082   0.00000  Uiso   1.00
O7116  O     0.67266   0.15380   0.07693   0.00000  Uiso   1.00
O7117  O     0.70909   0.14236   0.06479   0.00000  Uiso   1.00
C7118  C     0.32913   0.39424   0.91519   0.00000  Uiso   1.00
O7119  O     0.33498   0.41164   0.90665   0.00000  Uiso   1.00
O7120  O     0.32334   0.37819   0.92511   0.00000  Uiso   1.00
C7121  C     0.64833   0.79763   0.08551   0.00000  Uiso   1.00
O7122  O     0.62797   0.79938   0.09002   0.00000  Uiso   1.00
O7123  O     0.66782   0.79691   0.08119   0.00000  Uiso   1.00
C7124  C     0.77870  -0.02009   0.16126   0.00000  Uiso   1.00
O7125  O     0.77172  -0.01506   0.17885   0.00000  Uiso   1.00
O7126  O     0.78491  -0.02622   0.14348   0.00000  Uiso   1.00
C7127  C     0.39398   0.76330   1.11001   0.00000  Uiso   1.00
O7128  O     0.38681   0.75816   1.12836   0.00000  Uiso   1.00
O7129  O     0.40166   0.76915   1.09269   0.00000  Uiso   1.00
C7130  C     0.99023   0.02920   0.41034   0.00000  Uiso   1.00
O7131  O     0.99872   0.04718   0.41124   0.00000  Uiso   1.00
O7132  O     0.98028   0.01194   0.40822   0.00000  Uiso   1.00
C7133  C     0.94553   0.70340   0.23551   0.00000  Uiso   1.00
O7134  O     0.96516   0.69947   0.23481   0.00000  Uiso   1.00
O7135  O     0.92623   0.70757   0.23517   0.00000  Uiso   1.00
C7136  C     0.89597   0.67465   0.62881   0.00000  Uiso   1.00
O7137  O     0.89224   0.65512   0.62940   0.00000  Uiso   1.00
O7138  O     0.89956   0.69398   0.62792   0.00000  Uiso   1.00
C7139  C     0.56561   0.24608   1.11918   0.00000  Uiso   1.00
O7140  O     0.58501   0.24640   1.11634   0.00000  Uiso   1.00
O7141  O     0.54610   0.24480   1.12253   0.00000  Uiso   1.00
C7142  C     0.06388   0.74084   0.91566   0.00000  Uiso   1.00
O7143  O     0.06924   0.72284   0.90917   0.00000  Uiso   1.00
O7144  O     0.05840   0.75888   0.92175   0.00000  Uiso   1.00
C7145  C     0.14436   1.14520   0.01399   0.00000  Uiso   1.00
O7146  O     0.15076   1.13209   0.02758   0.00000  Uiso   1.00
O7147  O     0.13683   1.15831   0.00100   0.00000  Uiso   1.00
C7148  C    -0.09594   0.67005   0.80473   0.00000  Uiso   1.00
O7149  O    -0.10512   0.68609   0.81224   0.00000  Uiso   1.00
O7150  O    -0.08664   0.65424   0.79683   0.00000  Uiso   1.00
C7151  C    -0.18453   0.23015   0.51917   0.00000  Uiso   1.00
O7152  O    -0.17529   0.24750   0.51753   0.00000  Uiso   1.00
O7153  O    -0.19461   0.21253   0.51986   0.00000  Uiso   1.00
C7154  C     0.79964   0.97342   0.26522   0.00000  Uiso   1.00
O7155  O     0.81242   0.96765   0.27943   0.00000  Uiso   1.00
O7156  O     0.78760   0.97959   0.25075   0.00000  Uiso   1.00
C7157  C     0.17439   0.33582   0.67159   0.00000  Uiso   1.00
O7158  O     0.17133   0.32851   0.68986   0.00000  Uiso   1.00
O7159  O     0.17830   0.34318   0.65308   0.00000  Uiso   1.00
C7160  C     0.50290   1.01668   0.29405   0.00000  Uiso   1.00
O7161  O     0.49088   1.02822   0.30468   0.00000  Uiso   1.00
O7162  O     0.51443   1.00578   0.28180   0.00000  Uiso   1.00
C7163  C     0.37528   0.85014   0.03614   0.00000  Uiso   1.00
O7164  O     0.37298   0.83110   0.03110   0.00000  Uiso   1.00
O7165  O     0.37808   0.86946   0.04019   0.00000  Uiso   1.00
C7166  C     0.62135   0.37739   0.87571   0.00000  Uiso   1.00
O7167  O     0.61042   0.37738   0.85885   0.00000  Uiso   1.00
O7168  O     0.63306   0.37798   0.89219   0.00000  Uiso   1.00
C7169  C    -0.12942   0.81248   0.66691   0.00000  Uiso   1.00
O7170  O    -0.13111   0.83248   0.66797   0.00000  Uiso   1.00
O7171  O    -0.12847   0.79252   0.66475   0.00000  Uiso   1.00
C7172  C     0.58028   0.22710   0.76465   0.00000  Uiso   1.00
O7173  O     0.58707   0.20867   0.76811   0.00000  Uiso   1.00
O7174  O     0.57374   0.24544   0.76202   0.00000  Uiso   1.00
C7175  C     0.90810   0.97418   0.19243   0.00000  Uiso   1.00
O7176  O     0.91450   0.99314   0.19311   0.00000  Uiso   1.00
O7177  O     0.90132   0.95543   0.19118   0.00000  Uiso   1.00
C7178  C     1.21972   1.03986  -0.23255   0.00000  Uiso   1.00
O7179  O     1.22534   1.02308  -0.24031   0.00000  Uiso   1.00
O7180  O     1.21232   1.05678  -0.22600   0.00000  Uiso   1.00
C7181  C     0.72262  -0.05137   0.20452   0.00000  Uiso   1.00
O7182  O     0.72345  -0.04140   0.18756   0.00000  Uiso   1.00
O7183  O     0.72162  -0.06046   0.22212   0.00000  Uiso   1.00
C7184  C     0.89596   0.34597   0.62224   0.00000  Uiso   1.00
O7185  O     0.90712   0.36102   0.61543   0.00000  Uiso   1.00
O7186  O     0.88468   0.33066   0.62948   0.00000  Uiso   1.00
C7187  C     0.25017   0.46265   1.01909   0.00000  Uiso   1.00
O7188  O     0.23587   0.45898   1.00502   0.00000  Uiso   1.00
O7189  O     0.26451   0.46518   1.03424   0.00000  Uiso   1.00
C7190  C     0.95064  -0.14715   0.31360   0.00000  Uiso   1.00
O7191  O     0.94519  -0.15923   0.29950   0.00000  Uiso   1.00
O7192  O     0.95646  -0.13494   0.32801   0.00000  Uiso   1.00
C7193  C     0.33641   0.61545   0.07730   0.00000  Uiso   1.00
O7194  O     0.34783   0.60096   0.06997   0.00000  Uiso   1.00
O7195  O     0.32486   0.62932   0.08599   0.00000  Uiso   1.00
C7196  C    -0.21371   0.02389   0.79918   0.00000  Uiso   1.00
O7197  O    -0.20483   0.03104   0.78270   0.00000  Uiso   1.00
O7198  O    -0.22173   0.01603   0.81617   0.00000  Uiso   1.00
C7199  C    -0.09808   0.47848   0.57633   0.00000  Uiso   1.00
O7200  O    -0.09100   0.46193   0.58519   0.00000  Uiso   1.00
O7201  O    -0.10470   0.49410   0.56643   0.00000  Uiso   1.00
C7202  C     0.33051   0.48325   1.06069   0.00000  Uiso   1.00
O7203  O     0.31388   0.47310   1.05627   0.00000  Uiso   1.00
O7204  O     0.34819   0.49164   1.06626   0.00000  Uiso   1.00
C7205  C    -0.03099   0.26641   0.19628   0.00000  Uiso   1.00
O7206  O    -0.03957   0.27996   0.18439   0.00000  Uiso   1.00
O7207  O    -0.02361   0.25152   0.20711   0.00000  Uiso   1.00
C7208  C     0.24890   0.19583   0.48266   0.00000  Uiso   1.00
O7209  O     0.23713   0.17988   0.47921   0.00000  Uiso   1.00
O7210  O     0.25993   0.21281   0.48418   0.00000  Uiso   1.00
C7211  C     0.44849   0.82900   1.03149   0.00000  Uiso   1.00
O7212  O     0.45108   0.82764   1.05175   0.00000  Uiso   1.00
O7213  O     0.44720   0.83007   1.01103   0.00000  Uiso   1.00
C7214  C     0.58586   0.15277   0.07343   0.00000  Uiso   1.00
O7215  O     0.59164   0.13982   0.05965   0.00000  Uiso   1.00
O7216  O     0.57990   0.16422   0.08814   0.00000  Uiso   1.00
C7217  C     0.68265   0.07998   0.56935   0.00000  Uiso   1.00
O7218  O     0.68983   0.09513   0.57944   0.00000  Uiso   1.00
O7219  O     0.67526   0.06507   0.55930   0.00000  Uiso   1.00
C7220  C    -0.03522   0.86941   1.02876   0.00000  Uiso   1.00
O7221  O    -0.01852   0.86866   1.01869   0.00000  Uiso   1.00
O7222  O    -0.05286   0.87063   1.03767   0.00000  Uiso   1.00
C7223  C     0.59917   0.32349   0.09944   0.00000  Uiso   1.00
O7224  O     0.61332   0.33745   0.09747   0.00000  Uiso   1.00
O7225  O     0.58626   0.30825   0.09997   0.00000  Uiso   1.00
C7226  C     0.53057  -0.10890   0.31023   0.00000  Uiso   1.00
O7227  O     0.52874  -0.10172   0.32875   0.00000  Uiso   1.00
O7228  O     0.53232  -0.11503   0.29167   0.00000  Uiso   1.00
C7229  C     0.95088   0.76878   0.48187   0.00000  Uiso   1.00
O7230  O     0.93776   0.78201   0.48781   0.00000  Uiso   1.00
O7231  O     0.96400   0.75481   0.47682   0.00000  Uiso   1.00
C7232  C     0.27196   0.94594   0.28912   0.00000  Uiso   1.00
O7233  O     0.27867   0.94320   0.27059   0.00000  Uiso   1.00
O7234  O     0.26704   0.94869   0.30813   0.00000  Uiso   1.00
C7235  C    -0.04880   0.55110   0.33037   0.00000  Uiso   1.00
O7236  O    -0.03265   0.54184   0.32178   0.00000  Uiso   1.00
O7237  O    -0.06503   0.55967   0.33879   0.00000  Uiso   1.00
C7238  C     0.83714   0.21824   0.58856   0.00000  Uiso   1.00
O7239  O     0.82812   0.20497   0.57702   0.00000  Uiso   1.00
O7240  O     0.84619   0.23152   0.60057   0.00000  Uiso   1.00
C7241  C     0.85925   0.46038   0.31078   0.00000  Uiso   1.00
O7242  O     0.83929   0.46053   0.30927   0.00000  Uiso   1.00
O7243  O     0.87870   0.46039   0.31230   0.00000  Uiso   1.00
C7244  C     0.05880   0.62515   0.69210   0.00000  Uiso   1.00
O7245  O     0.07762   0.63010   0.69449   0.00000  Uiso   1.00
O7246  O     0.03972   0.62028   0.68989   0.00000  Uiso   1.00
C7247  C     0.67099   0.23704   0.70969   0.00000  Uiso   1.00
O7248  O     0.65176   0.23840   0.70454   0.00000  Uiso   1.00
O7249  O     0.68974   0.23578   0.71514   0.00000  Uiso   1.00
C7250  C     0.77815   0.54395  -0.09101   0.00000  Uiso   1.00
O7251  O     0.79481   0.55510  -0.09248   0.00000  Uiso   1.00
O7252  O     0.76077   0.53386  -0.08964   0.00000  Uiso   1.00
C7253  C     0.49147   0.77971   1.01069   0.00000  Uiso   1.00
O7254  O     0.49757   0.79718   1.00345   0.00000  Uiso   1.00
O7255  O     0.48710   0.76109   1.01675   0.00000  Uiso   1.00
C7256  C     1.08834   1.02485   0.59255   0.00000  Uiso   1.00
O7257  O     1.10422   1.01356   0.58846   0.00000  Uiso   1.00
O7258  O     1.07233   1.03614   0.59613   0.00000  Uiso   1.00
C7259  C    -0.01791   0.65359   0.56156   0.00000  Uiso   1.00
O7260  O    -0.00101   0.66321   0.55801   0.00000  Uiso   1.00
O7261  O    -0.03480   0.64371   0.56499   0.00000  Uiso   1.00
C7262  C     0.10590   0.62641   0.62480   0.00000  Uiso   1.00
O7263  O     0.09519   0.62253   0.64127   0.00000  Uiso   1.00
O7264  O     0.11556   0.62908   0.60764   0.00000  Uiso   1.00
C7265  C     0.49507   0.47226   0.06892   0.00000  Uiso   1.00
O7266  O     0.48966   0.47176   0.04981   0.00000  Uiso   1.00
O7267  O     0.49992   0.47232   0.08792   0.00000  Uiso   1.00
C7268  C     0.83508   0.91949  -0.24540   0.00000  Uiso   1.00
O7269  O     0.81930   0.91129  -0.23570   0.00000  Uiso   1.00
O7270  O     0.85028   0.92695  -0.25615   0.00000  Uiso   1.00
C7271  C    -0.05175   0.34268   0.36635   0.00000  Uiso   1.00
O7272  O    -0.06967   0.35117   0.36194   0.00000  Uiso   1.00
O7273  O    -0.03425   0.33435   0.37144   0.00000  Uiso   1.00
C7274  C     0.87384   0.68631   0.33440   0.00000  Uiso   1.00
O7275  O     0.85806   0.69801   0.33349   0.00000  Uiso   1.00
O7276  O     0.88897   0.67342   0.33438   0.00000  Uiso   1.00
C7277  C     1.08928   0.57130   0.31050   0.00000  Uiso   1.00
O7278  O     1.07690   0.56076   0.29939   0.00000  Uiso   1.00
O7279  O     1.10165   0.58231   0.32167   0.00000  Uiso   1.00
C7280  C     0.51599  -0.06498   0.59945   0.00000  Uiso   1.00
O7281  O     0.50574  -0.05366   0.58656   0.00000  Uiso   1.00
O7282  O     0.52389  -0.07590   0.61377   0.00000  Uiso   1.00
C7283  C     1.22367   0.27074   0.55853   0.00000  Uiso   1.00
O7284  O     1.22348   0.27064   0.57824   0.00000  Uiso   1.00
O7285  O     1.22395   0.26815   0.53880   0.00000  Uiso   1.00
C7286  C     0.21210   0.67437   0.24946   0.00000  Uiso   1.00
O7287  O     0.20469   0.65594   0.24815   0.00000  Uiso   1.00
O7288  O     0.21847   0.69349   0.25017   0.00000  Uiso   1.00
C7289  C     1.00170   0.41867   0.40675   0.00000  Uiso   1.00
O7290  O     0.99651   0.42730   0.38901   0.00000  Uiso   1.00
O7291  O     1.00537   0.41015   0.42461   0.00000  Uiso   1.00
C7292  C     0.79421   0.47620  -0.23156   0.00000  Uiso   1.00
O7293  O     0.79300   0.45637  -0.22863   0.00000  Uiso   1.00
O7294  O     0.79588   0.49544  -0.23385   0.00000  Uiso   1.00
C7295  C     0.71908   0.47574   0.17645   0.00000  Uiso   1.00
O7296  O     0.72514   0.46807   0.19379   0.00000  Uiso   1.00
O7297  O     0.71255   0.48457   0.15988   0.00000  Uiso   1.00
C7298  C     0.88427   0.82231   0.18716   0.00000  Uiso   1.00
O7299  O     0.88536   0.80521   0.19697   0.00000  Uiso   1.00
O7300  O     0.88388   0.83975   0.17777   0.00000  Uiso   1.00
C7301  C    -0.17423  -0.01437   0.37771   0.00000  Uiso   1.00
O7302  O    -0.16570  -0.02187   0.36141   0.00000  Uiso   1.00
O7303  O    -0.18192  -0.00649   0.39432   0.00000  Uiso   1.00
C7304  C     0.37584   1.21255   0.05767   0.00000  Uiso   1.00
O7305  O     0.38912   1.19937   0.06438   0.00000  Uiso   1.00
O7306  O     0.36276   1.22686   0.05200   0.00000  Uiso   1.00
C7307  C     0.15595   0.05527  -0.04143   0.00000  Uiso   1.00
O7308  O     0.14302   0.04319  -0.05020   0.00000  Uiso   1.00
O7309  O     0.16714   0.06815  -0.03166   0.00000  Uiso   1.00
C7310  C     0.36889   0.53040  -0.10825   0.00000  Uiso   1.00
O7311  O     0.35988   0.53850  -0.12400   0.00000  Uiso   1.00
O7312  O     0.37659   0.52247  -0.09195   0.00000  Uiso   1.00
C7313  C     0.19286   0.72537   0.79857   0.00000  Uiso   1.00
O7314  O     0.18883   0.73195   0.78040   0.00000  Uiso   1.00
O7315  O     0.19691   0.71972   0.81709   0.00000  Uiso   1.00
C7316  C     0.18381   0.79283   0.52721   0.00000  Uiso   1.00
O7317  O     0.19831   0.80496   0.53315   0.00000  Uiso   1.00
O7318  O     0.16906   0.78101   0.52226   0.00000  Uiso   1.00
C7319  C     1.07627   0.20830   0.75421   0.00000  Uiso   1.00
O7320  O     1.07179   0.22084   0.76924   0.00000  Uiso   1.00
O7321  O     1.08185   0.19583   0.73971   0.00000  Uiso   1.00
C7322  C    -0.26959   0.97105   0.27099   0.00000  Uiso   1.00
O7323  O    -0.27521   0.98940   0.26486   0.00000  Uiso   1.00
O7324  O    -0.26439   0.95265   0.27653   0.00000  Uiso   1.00
C7325  C     0.86084   0.05482   0.82412   0.00000  Uiso   1.00
O7326  O     0.84988   0.04352   0.81213   0.00000  Uiso   1.00
O7327  O     0.87213   0.06552   0.83623   0.00000  Uiso   1.00
C7328  C     0.71977   0.16098   0.36305   0.00000  Uiso   1.00
O7329  O     0.70147   0.16002   0.35562   0.00000  Uiso   1.00
O7330  O     0.73870   0.16067   0.36887   0.00000  Uiso   1.00
C7331  C     0.17186   0.88645   0.94995   0.00000  Uiso   1.00
O7332  O     0.15807   0.87289   0.95292   0.00000  Uiso   1.00
O7333  O     0.18411   0.90174   0.94590   0.00000  Uiso   1.00
C7334  C     0.46786  -0.10045   0.30667   0.00000  Uiso   1.00
O7335  O     0.46261  -0.08160   0.31107   0.00000  Uiso   1.00
O7336  O     0.47198  -0.11955   0.30302   0.00000  Uiso   1.00
C7337  C     0.71072   0.21885   0.54819   0.00000  Uiso   1.00
O7338  O     0.71967   0.21644   0.53054   0.00000  Uiso   1.00
O7339  O     0.70168   0.22051   0.56581   0.00000  Uiso   1.00
C7340  C     0.56922   0.17226   0.33066   0.00000  Uiso   1.00
O7341  O     0.57806   0.18397   0.34416   0.00000  Uiso   1.00
O7342  O     0.56044   0.16059   0.31727   0.00000  Uiso   1.00
C7343  C     0.41652   0.20975   0.27639   0.00000  Uiso   1.00
O7344  O     0.41085   0.21186   0.29540   0.00000  Uiso   1.00
O7345  O     0.42094   0.20830   0.25685   0.00000  Uiso   1.00
C7346  C     0.25083   0.78323   0.78287   0.00000  Uiso   1.00
O7347  O     0.23793   0.78462   0.76778   0.00000  Uiso   1.00
O7348  O     0.26331   0.78046   0.79800   0.00000  Uiso   1.00
C7349  C     0.64132   0.08167   0.62891   0.00000  Uiso   1.00
O7350  O     0.63887   0.10056   0.62204   0.00000  Uiso   1.00
O7351  O     0.64279   0.06259   0.63430   0.00000  Uiso   1.00
C7352  C     0.84922   0.70832   0.67301   0.00000  Uiso   1.00
O7353  O     0.84151   0.70405   0.65518   0.00000  Uiso   1.00
O7354  O     0.85687   0.71164   0.69093   0.00000  Uiso   1.00
C7355  C     0.55412   0.77671   0.82053   0.00000  Uiso   1.00
O7356  O     0.54223   0.78195   0.80531   0.00000  Uiso   1.00
O7357  O     0.56643   0.77217   0.83576   0.00000  Uiso   1.00
C7358  C     0.09031   0.36220   0.03794   0.00000  Uiso   1.00
O7359  O     0.07502   0.35109   0.03127   0.00000  Uiso   1.00
O7360  O     0.10703   0.37087   0.04391   0.00000  Uiso   1.00
C7361  C     0.92584   0.41657   0.39869   0.00000  Uiso   1.00
O7362  O     0.92636   0.41370   0.37866   0.00000  Uiso   1.00
O7363  O     0.92684   0.42056   0.41784   0.00000  Uiso   1.00
C7364  C     0.12620   0.79215   0.02770   0.00000  Uiso   1.00
O7365  O     0.12318   0.79441   0.04711   0.00000  Uiso   1.00
O7366  O     0.12869   0.78862   0.00861   0.00000  Uiso   1.00
C7367  C     0.16447   0.24423   0.57486   0.00000  Uiso   1.00
O7368  O     0.18381   0.24200   0.57944   0.00000  Uiso   1.00
O7369  O     0.14513   0.24678   0.57140   0.00000  Uiso   1.00
C7370  C     1.25067  -0.04443   0.69447   0.00000  Uiso   1.00
O7371  O     1.25585  -0.02918   0.70594   0.00000  Uiso   1.00
O7372  O     1.24554  -0.05959   0.68300   0.00000  Uiso   1.00
C7373  C     0.76323   1.26524  -0.06531   0.00000  Uiso   1.00
O7374  O     0.75329   1.27889  -0.07557   0.00000  Uiso   1.00
O7375  O     0.77345   1.25184  -0.05465   0.00000  Uiso   1.00
C7376  C    -0.20842   0.21508   0.99199   0.00000  Uiso   1.00
O7377  O    -0.20348   0.20522   0.97503   0.00000  Uiso   1.00
O7378  O    -0.21141   0.22471   1.00943   0.00000  Uiso   1.00
C7379  C     0.74337   0.31152   0.07100   0.00000  Uiso   1.00
O7380  O     0.72857   0.30297   0.08144   0.00000  Uiso   1.00
O7381  O     0.75820   0.32035   0.06140   0.00000  Uiso   1.00
C7382  C     0.51254   0.18290   0.08745   0.00000  Uiso   1.00
O7383  O     0.49891   0.18268   0.07280   0.00000  Uiso   1.00
O7384  O     0.52766   0.18191   0.10040   0.00000  Uiso   1.00
C7385  C    -0.12148   0.17563   0.51417   0.00000  Uiso   1.00
O7386  O    -0.11969   0.17662   0.53423   0.00000  Uiso   1.00
O7387  O    -0.12299   0.17329   0.49432   0.00000  Uiso   1.00
C7388  C     0.34872   0.68707  -0.08894   0.00000  Uiso   1.00
O7389  O     0.36219   0.69309  -0.07599   0.00000  Uiso   1.00
O7390  O     0.33437   0.68062  -0.10139   0.00000  Uiso   1.00
C7391  C     0.74874   0.49505   0.81666   0.00000  Uiso   1.00
O7392  O     0.73185   0.49944   0.82578   0.00000  Uiso   1.00
O7393  O     0.76608   0.49122   0.80755   0.00000  Uiso   1.00
C7394  C    -0.18205   0.13115   0.41768   0.00000  Uiso   1.00
O7395  O    -0.16620   0.14315   0.41911   0.00000  Uiso   1.00
O7396  O    -0.19792   0.11914   0.41713   0.00000  Uiso   1.00
C7397  C     0.96959  -0.29827   0.43942   0.00000  Uiso   1.00
O7398  O     0.97031  -0.27917   0.44416   0.00000  Uiso   1.00
O7399  O     0.96902  -0.31774   0.43419   0.00000  Uiso   1.00
C7400  C     0.54686   0.16116   0.76009   0.00000  Uiso   1.00
O7401  O     0.53563   0.16629   0.74377   0.00000  Uiso   1.00
O7402  O     0.55834   0.15781   0.77577   0.00000  Uiso   1.00
C7403  C    -0.00051   0.11388   0.54724   0.00000  Uiso   1.00
O7404  O     0.00299   0.10889   0.52849   0.00000  Uiso   1.00
O7405  O    -0.00401   0.11923   0.56612   0.00000  Uiso   1.00
C7406  C     0.26531   0.81049   0.84394   0.00000  Uiso   1.00
O7407  O     0.28337   0.80837   0.83590   0.00000  Uiso   1.00
O7408  O     0.24786   0.81060   0.85322   0.00000  Uiso   1.00
C7409  C     0.88730   0.75942   0.02779   0.00000  Uiso   1.00
O7410  O     0.88831   0.75537   0.04681   0.00000  Uiso   1.00
O7411  O     0.88642   0.76337   0.00845   0.00000  Uiso   1.00
C7412  C     0.34035   0.93579   0.14934   0.00000  Uiso   1.00
O7413  O     0.33558   0.94978   0.16297   0.00000  Uiso   1.00
O7414  O     0.34537   0.92188   0.13621   0.00000  Uiso   1.00
C7415  C     0.94403   0.99087   0.71293   0.00000  Uiso   1.00
O7416  O     0.94617   0.97161   0.70829   0.00000  Uiso   1.00
O7417  O     0.94297   1.01025   0.71620   0.00000  Uiso   1.00
C7418  C     0.71587   0.22888   0.63602   0.00000  Uiso   1.00
O7419  O     0.71365   0.21923   0.65337   0.00000  Uiso   1.00
O7420  O     0.71820   0.23908   0.61909   0.00000  Uiso   1.00
C7421  C     0.80780   0.59391   0.85251   0.00000  Uiso   1.00
O7422  O     0.80167   0.59166   0.87120   0.00000  Uiso   1.00
O7423  O     0.81198   0.59406   0.83327   0.00000  Uiso   1.00
C7424  C     0.80211   0.70657   0.12980   0.00000  Uiso   1.00
O7425  O     0.79954   0.70080   0.14880   0.00000  Uiso   1.00
O7426  O     0.80511   0.71219   0.11098   0.00000  Uiso   1.00
C7427  C     0.55506   0.63952   0.95401   0.00000  Uiso   1.00
O7428  O     0.55562   0.62128   0.96186   0.00000  Uiso   1.00
O7429  O     0.55668   0.65837   0.94790   0.00000  Uiso   1.00
C7430  C     0.85405   0.80187   0.08821   0.00000  Uiso   1.00
O7431  O     0.87010   0.81070   0.08086   0.00000  Uiso   1.00
O7432  O     0.83693   0.79413   0.09515   0.00000  Uiso   1.00
C7433  C     0.13652   0.17448   0.62751   0.00000  Uiso   1.00
O7434  O     0.14840   0.18530   0.61616   0.00000  Uiso   1.00
O7435  O     0.12358   0.16522   0.63945   0.00000  Uiso   1.00
C7436  C     0.07141   0.39619   0.82539   0.00000  Uiso   1.00
O7437  O     0.06408   0.38480   0.83978   0.00000  Uiso   1.00
O7438  O     0.07839   0.41025   0.81359   0.00000  Uiso   1.00
C7439  C     0.34287   0.21451   0.73485   0.00000  Uiso   1.00
O7440  O     0.34614   0.22401   0.71803   0.00000  Uiso   1.00
O7441  O     0.33822   0.20291   0.75031   0.00000  Uiso   1.00
C7442  C    -0.20643  -0.24441   1.03118   0.00000  Uiso   1.00
O7443  O    -0.21712  -0.25588   1.04268   0.00000  Uiso   1.00
O7444  O    -0.19460  -0.23311   1.02039   0.00000  Uiso   1.00
C7445  C     0.04135   0.62316   0.59518   0.00000  Uiso   1.00
O7446  O     0.02701   0.62206   0.58135   0.00000  Uiso   1.00
O7447  O     0.05643   0.62410   0.60831   0.00000  Uiso   1.00
C7448  C     0.69862   0.02665   0.45792   0.00000  Uiso   1.00
O7449  O     0.71130   0.02920   0.44262   0.00000  Uiso   1.00
O7450  O     0.68677   0.02420   0.47403   0.00000  Uiso   1.00
C7451  C     0.07644   0.08790   0.49242   0.00000  Uiso   1.00
O7452  O     0.06976   0.10628   0.48926   0.00000  Uiso   1.00
O7453  O     0.08332   0.06982   0.49651   0.00000  Uiso   1.00
C7454  C     0.92954   0.22223   0.55352   0.00000  Uiso   1.00
O7455  O     0.94164   0.20806   0.54640   0.00000  Uiso   1.00
O7456  O     0.91753   0.23601   0.56048   0.00000  Uiso   1.00
C7457  C     0.67429   0.80507   0.86584   0.00000  Uiso   1.00
O7458  O     0.65735   0.81307   0.85878   0.00000  Uiso   1.00
O7459  O     0.69093   0.79634   0.87288   0.00000  Uiso   1.00
C7460  C     1.09143   0.18370   0.38949   0.00000  Uiso   1.00
O7461  O     1.07595   0.17066   0.38764   0.00000  Uiso   1.00
O7462  O     1.10507   0.19786   0.38924   0.00000  Uiso   1.00
C7463  C     0.13330   0.49781   0.90033   0.00000  Uiso   1.00
O7464  O     0.13645   0.47823   0.90278   0.00000  Uiso   1.00
O7465  O     0.13050   0.51746   0.89843   0.00000  Uiso   1.00
C7466  C     0.65954   0.09292   0.07581   0.00000  Uiso   1.00
O7467  O     0.67785   0.08494   0.07809   0.00000  Uiso   1.00
O7468  O     0.64130   0.10075   0.07300   0.00000  Uiso   1.00
C7469  C    -0.14751   0.84264   0.56799   0.00000  Uiso   1.00
O7470  O    -0.14637   0.82243   0.56674   0.00000  Uiso   1.00
O7471  O    -0.15168   0.86192   0.56774   0.00000  Uiso   1.00
C7472  C     0.01756   0.38944   0.95708   0.00000  Uiso   1.00
O7473  O     0.01480   0.39607   0.93832   0.00000  Uiso   1.00
O7474  O     0.01971   0.38167   0.97567   0.00000  Uiso   1.00
C7475  C     1.08321   0.77488   0.72922   0.00000  Uiso   1.00
O7476  O     1.07747   0.75705   0.72065   0.00000  Uiso   1.00
O7477  O     1.08889   0.79206   0.73699   0.00000  Uiso   1.00
C7478  C     0.69191   0.15817   0.65074   0.00000  Uiso   1.00
O7479  O     0.67713   0.17166   0.64936   0.00000  Uiso   1.00
O7480  O     0.70485   0.14312   0.65020   0.00000  Uiso   1.00
C7481  C     0.76512   0.25597   0.56004   0.00000  Uiso   1.00
O7482  O     0.76770   0.25690   0.54064   0.00000  Uiso   1.00
O7483  O     0.76457   0.25445   0.58009   0.00000  Uiso   1.00
C7484  C     0.36851   1.02851   0.21353   0.00000  Uiso   1.00
O7485  O     0.37656   1.01579   0.22642   0.00000  Uiso   1.00
O7486  O     0.36111   1.04144   0.20068   0.00000  Uiso   1.00
C7487  C     0.95877   0.72055   0.58588   0.00000  Uiso   1.00
O7488  O     0.95318   0.70213   0.59059   0.00000  Uiso   1.00
O7489  O     0.96535   0.73871   0.58083   0.00000  Uiso   1.00
C7490  C     0.24998   0.53396   0.20046   0.00000  Uiso   1.00
O7491  O     0.24249   0.51964   0.21228   0.00000  Uiso   1.00
O7492  O     0.25815   0.54912   0.19022   0.00000  Uiso   1.00
C7493  C    -0.08719   0.62265   1.15985   0.00000  Uiso   1.00
O7494  O    -0.10671   0.62040   1.15595   0.00000  Uiso   1.00
O7495  O    -0.06757   0.62494   1.16395   0.00000  Uiso   1.00
C7496  C     0.07431   0.38811  -0.07253   0.00000  Uiso   1.00
O7497  O     0.07138   0.39675  -0.09068   0.00000  Uiso   1.00
O7498  O     0.07660   0.38016  -0.05487   0.00000  Uiso   1.00
C7499  C     0.30391   1.07293   0.47559   0.00000  Uiso   1.00
O7500  O     0.30297   1.08116   0.45764   0.00000  Uiso   1.00
O7501  O     0.30411   1.06623   0.49436   0.00000  Uiso   1.00
C7502  C     0.01214   0.49535  -0.03271   0.00000  Uiso   1.00
O7503  O     0.03054   0.50322  -0.03307   0.00000  Uiso   1.00
O7504  O    -0.00629   0.48841  -0.03231   0.00000  Uiso   1.00
C7505  C    -0.04547   0.76532   0.65211   0.00000  Uiso   1.00
O7506  O    -0.03418   0.76819   0.63630   0.00000  Uiso   1.00
O7507  O    -0.05748   0.76184   0.66744   0.00000  Uiso   1.00
C7508  C     0.48356   0.88457   0.06908   0.00000  Uiso   1.00
O7509  O     0.47869   0.90347   0.06632   0.00000  Uiso   1.00
O7510  O     0.48760   0.86550   0.07174   0.00000  Uiso   1.00
C7511  C     0.27364   0.70928   0.87850   0.00000  Uiso   1.00
O7512  O     0.26015   0.72420   0.88160   0.00000  Uiso   1.00
O7513  O     0.28610   0.69440   0.87575   0.00000  Uiso   1.00
C7514  C     0.66535   0.47358   0.02559   0.00000  Uiso   1.00
O7515  O     0.67519   0.47903   0.04212   0.00000  Uiso   1.00
O7516  O     0.65626   0.46874   0.00919   0.00000  Uiso   1.00
C7517  C     0.90421   0.48833   0.68680   0.00000  Uiso   1.00
O7518  O     0.91550   0.47568   0.69740   0.00000  Uiso   1.00
O7519  O     0.89274   0.49975   0.67504   0.00000  Uiso   1.00
C7520  C     0.18845   0.19792   1.00050   0.00000  Uiso   1.00
O7521  O     0.17415   0.21123   0.99527   0.00000  Uiso   1.00
O7522  O     0.20170   0.18366   1.00424   0.00000  Uiso   1.00
C7523  C     0.01167   0.78764   0.60940   0.00000  Uiso   1.00
O7524  O     0.01117   0.78141   0.59112   0.00000  Uiso   1.00
O7525  O     0.01425   0.79406   0.62790   0.00000  Uiso   1.00
C7526  C     0.74879   0.88020   0.84738   0.00000  Uiso   1.00
O7527  O     0.75291   0.87991   0.86694   0.00000  Uiso   1.00
O7528  O     0.74497   0.88052   0.82793   0.00000  Uiso   1.00
C7529  C     0.90421   0.10805   0.92688   0.00000  Uiso   1.00
O7530  O     0.89044   0.12130   0.92389   0.00000  Uiso   1.00
O7531  O     0.91696   0.09374   0.93084   0.00000  Uiso   1.00
C7532  C     0.52875   0.78175   0.16078   0.00000  Uiso   1.00
O7533  O     0.52330   0.79011   0.14393   0.00000  Uiso   1.00
O7534  O     0.53359   0.77430   0.17863   0.00000  Uiso   1.00
C7535  C     0.73669   0.27340   0.13800   0.00000  Uiso   1.00
O7536  O     0.73292   0.29300   0.13655   0.00000  Uiso   1.00
O7537  O     0.74151   0.25408   0.14047   0.00000  Uiso   1.00
C7538  C     0.36857   0.23044   0.80191   0.00000  Uiso   1.00
O7539  O     0.37590   0.22943   0.82048   0.00000  Uiso   1.00
O7540  O     0.36194   0.23121   0.78333   0.00000  Uiso   1.00
C7541  C     0.90782   0.23187  -0.12232   0.00000  Uiso   1.00
O7542  O     0.89987   0.23825  -0.10523   0.00000  Uiso   1.00
O7543  O     0.91638   0.22528  -0.13918   0.00000  Uiso   1.00
C7544  C     0.72931   0.03920   0.54469   0.00000  Uiso   1.00
O7545  O     0.73271   0.02184   0.55359   0.00000  Uiso   1.00
O7546  O     0.72702   0.05748   0.53659   0.00000  Uiso   1.00
C7547  C     0.87749   0.32445   0.13483   0.00000  Uiso   1.00
O7548  O     0.87759   0.31028   0.14864   0.00000  Uiso   1.00
O7549  O     0.87733   0.33828   0.12037   0.00000  Uiso   1.00
C7550  C     0.10987  -0.01841   1.09979   0.00000  Uiso   1.00
O7551  O     0.11323  -0.03757   1.09525   0.00000  Uiso   1.00
O7552  O     0.10594   0.00087   1.10361   0.00000  Uiso   1.00
C7553  C     1.00509   0.86477   0.64514   0.00000  Uiso   1.00
O7554  O     1.00808   0.88218   0.63526   0.00000  Uiso   1.00
O7555  O     1.00267   0.84743   0.65513   0.00000  Uiso   1.00
C7556  C     0.03217   0.19655   0.38976   0.00000  Uiso   1.00
O7557  O     0.04007   0.20725   0.40442   0.00000  Uiso   1.00
O7558  O     0.02375   0.18786   0.37403   0.00000  Uiso   1.00
C7559  C     0.51088   0.90009   0.94366   0.00000  Uiso   1.00
O7560  O     0.49166   0.89594   0.93966   0.00000  Uiso   1.00
O7561  O     0.52959   0.90496   0.94843   0.00000  Uiso   1.00
C7562  C     0.76182   0.44754   0.22450   0.00000  Uiso   1.00
O7563  O     0.76869   0.46503   0.23103   0.00000  Uiso   1.00
O7564  O     0.75466   0.42988   0.21848   0.00000  Uiso   1.00
C7565  C    -0.03638   0.72305   0.35729   0.00000  Uiso   1.00
O7566  O    -0.03152   0.71783   0.37661   0.00000  Uiso   1.00
O7567  O    -0.04162   0.72998   0.33921   0.00000  Uiso   1.00
C7568  C     0.01967   0.22089   0.51848   0.00000  Uiso   1.00
O7569  O     0.00195   0.21450   0.51210   0.00000  Uiso   1.00
O7570  O     0.03809   0.22381   0.52484   0.00000  Uiso   1.00
C7571  C     0.29504   0.38190   0.96678   0.00000  Uiso   1.00
O7572  O     0.31244   0.37852   0.97534   0.00000  Uiso   1.00
O7573  O     0.27748   0.38534   0.95871   0.00000  Uiso   1.00
C7574  C     0.07366   0.28072   0.12128   0.00000  Uiso   1.00
O7575  O     0.06146   0.27323   0.10702   0.00000  Uiso   1.00
O7576  O     0.08479   0.28727   0.13603   0.00000  Uiso   1.00
C7577  C     0.24059   0.20097   0.12652   0.00000  Uiso   1.00
O7578  O     0.22179   0.20312   0.13325   0.00000  Uiso   1.00
O7579  O     0.25894   0.19790   0.11867   0.00000  Uiso   1.00
C7580  C    -0.16725   0.01666   0.63296   0.00000  Uiso   1.00
O7581  O    -0.18203   0.02919   0.63658   0.00000  Uiso   1.00
O7582  O    -0.15242   0.00377   0.62905   0.00000  Uiso   1.00
C7583  C     0.30404   0.13475   0.29529   0.00000  Uiso   1.00
O7584  O     0.31869   0.12209   0.29123   0.00000  Uiso   1.00
O7585  O     0.29104   0.14791   0.30091   0.00000  Uiso   1.00
C7586  C    -0.00983   0.46427   0.70705   0.00000  Uiso   1.00
O7587  O    -0.01404   0.44440   0.70715   0.00000  Uiso   1.00
O7588  O    -0.00546   0.48356   0.70741   0.00000  Uiso   1.00
C7589  C     0.08332   0.08912   0.06134   0.00000  Uiso   1.00
O7590  O     0.09714   0.08122   0.07274   0.00000  Uiso   1.00
O7591  O     0.06942   0.09809   0.05070   0.00000  Uiso   1.00
C7592  C     0.43854   0.36334   0.05539   0.00000  Uiso   1.00
O7593  O     0.43151   0.34608   0.06244   0.00000  Uiso   1.00
O7594  O     0.44424   0.38086   0.04789   0.00000  Uiso   1.00
C7595  C     0.56321  -0.22970  -0.03299   0.00000  Uiso   1.00
O7596  O     0.55709  -0.21066  -0.02924   0.00000  Uiso   1.00
O7597  O     0.56898  -0.24780  -0.03751   0.00000  Uiso   1.00
C7598  C     0.18837   0.14124   0.95476   0.00000  Uiso   1.00
O7599  O     0.17928   0.13364   0.93835   0.00000  Uiso   1.00
O7600  O     0.19723   0.14853   0.97115   0.00000  Uiso   1.00
C7601  C     0.01422   0.52032   0.89942   0.00000  Uiso   1.00
O7602  O     0.00397   0.52315   0.88272   0.00000  Uiso   1.00
O7603  O     0.02374   0.51646   0.91639   0.00000  Uiso   1.00
C7604  C     0.68887   0.60069   0.13976   0.00000  Uiso   1.00
O7605  O     0.70661   0.59456   0.14561   0.00000  Uiso   1.00
O7606  O     0.67098   0.60556   0.13348   0.00000  Uiso   1.00
C7607  C     0.74355   0.07674   0.77927   0.00000  Uiso   1.00
O7608  O     0.72534   0.08055   0.77239   0.00000  Uiso   1.00
O7609  O     0.76210   0.07379   0.78582   0.00000  Uiso   1.00
C7610  C     0.54692   0.92396   0.39270   0.00000  Uiso   1.00
O7611  O     0.53081   0.93524   0.39223   0.00000  Uiso   1.00
O7612  O     0.56402   0.91315   0.39428   0.00000  Uiso   1.00
C7613  C     1.08000   0.64056   0.03589   0.00000  Uiso   1.00
O7614  O     1.06198   0.63699   0.04360   0.00000  Uiso   1.00
O7615  O     1.09682   0.64447   0.02685   0.00000  Uiso   1.00
C7616  C     0.57935   0.85860   0.85772   0.00000  Uiso   1.00
O7617  O     0.58625   0.86896   0.87359   0.00000  Uiso   1.00
O7618  O     0.57219   0.84781   0.84228   0.00000  Uiso   1.00
C7619  C     1.02926   0.87898   0.19696   0.00000  Uiso   1.00
O7620  O     1.02206   0.88918   0.18126   0.00000  Uiso   1.00
O7621  O     1.03702   0.86845   0.21163   0.00000  Uiso   1.00
C7622  C     0.29463   0.44524   0.82605   0.00000  Uiso   1.00
O7623  O     0.27837   0.45660   0.82244   0.00000  Uiso   1.00
O7624  O     0.30978   0.43222   0.82886   0.00000  Uiso   1.00
C7625  C    -0.24508  -0.05053   0.42894   0.00000  Uiso   1.00
O7626  O    -0.24958  -0.03083   0.43111   0.00000  Uiso   1.00
O7627  O    -0.24129  -0.07021   0.42707   0.00000  Uiso   1.00
C7628  C    -0.14325   0.61295   0.32252   0.00000  Uiso   1.00
O7629  O    -0.15550   0.59746   0.31894   0.00000  Uiso   1.00
O7630  O    -0.12889   0.62686   0.32499   0.00000  Uiso   1.00
C7631  C     0.81683   0.29684   0.43043   0.00000  Uiso   1.00
O7632  O     0.81866   0.31318   0.44175   0.00000  Uiso   1.00
O7633  O     0.81534   0.28057   0.41905   0.00000  Uiso   1.00
C7634  C     1.08258   0.51651  -0.15671   0.00000  Uiso   1.00
O7635  O     1.07083   0.51443  -0.14056   0.00000  Uiso   1.00
O7636  O     1.09506   0.51970  -0.17183   0.00000  Uiso   1.00
C7637  C     0.13554   0.83872   0.29100   0.00000  Uiso   1.00
O7638  O     0.14693   0.82976   0.30427   0.00000  Uiso   1.00
O7639  O     0.12383   0.84800   0.27733   0.00000  Uiso   1.00
C7640  C     1.40299  -0.10267   0.83475   0.00000  Uiso   1.00
O7641  O     1.39382  -0.08656   0.84196   0.00000  Uiso   1.00
O7642  O     1.41183  -0.11922   0.82798   0.00000  Uiso   1.00
C7643  C     0.99998   0.88543   0.92556   0.00000  Uiso   1.00
O7644  O     1.01202   0.86967   0.92383   0.00000  Uiso   1.00
O7645  O     0.98929   0.90207   0.92750   0.00000  Uiso   1.00
C7646  C     0.34512   0.26664   0.93413   0.00000  Uiso   1.00
O7647  O     0.36036   0.26039   0.94538   0.00000  Uiso   1.00
O7648  O     0.32907   0.27266   0.92530   0.00000  Uiso   1.00
C7649  C     0.76607   0.59155   1.11437   0.00000  Uiso   1.00
O7650  O     0.76396   0.57241   1.11077   0.00000  Uiso   1.00
O7651  O     0.76892   0.61071   1.11818   0.00000  Uiso   1.00
C7652  C     0.25382   0.71891   0.97376   0.00000  Uiso   1.00
O7653  O     0.27407   0.71692   0.97472   0.00000  Uiso   1.00
O7654  O     0.23365   0.72126   0.97089   0.00000  Uiso   1.00
C7655  C     0.82885   0.39349   0.33661   0.00000  Uiso   1.00
O7656  O     0.82186   0.37581   0.34222   0.00000  Uiso   1.00
O7657  O     0.83564   0.41138   0.33039   0.00000  Uiso   1.00
C7658  C     0.77073   0.40206   0.05801   0.00000  Uiso   1.00
O7659  O     0.75962   0.38551   0.05793   0.00000  Uiso   1.00
O7660  O     0.78079   0.41910   0.05983   0.00000  Uiso   1.00
C7661  C     0.23619   0.47790   1.16468   0.00000  Uiso   1.00
O7662  O     0.24486   0.48866   1.15010   0.00000  Uiso   1.00
O7663  O     0.22785   0.46723   1.17917   0.00000  Uiso   1.00
C7664  C     0.88441   0.55370   0.10998   0.00000  Uiso   1.00
O7665  O     0.86753   0.55555   0.09948   0.00000  Uiso   1.00
O7666  O     0.90075   0.55217   0.12094   0.00000  Uiso   1.00
C7667  C     0.56069  -0.03503   0.64290   0.00000  Uiso   1.00
O7668  O     0.54426  -0.02441   0.63967   0.00000  Uiso   1.00
O7669  O     0.57793  -0.04492   0.64477   0.00000  Uiso   1.00
C7670  C     1.03388   0.80525   0.72021   0.00000  Uiso   1.00
O7671  O     1.02748   0.79829   0.73770   0.00000  Uiso   1.00
O7672  O     1.04055   0.81211   0.70283   0.00000  Uiso   1.00
C7673  C    -0.02001   0.12168   0.32211   0.00000  Uiso   1.00
O7674  O    -0.03602   0.12021   0.33369   0.00000  Uiso   1.00
O7675  O    -0.00378   0.12322   0.31109   0.00000  Uiso   1.00
C7676  C     1.01843   0.62329   0.34174   0.00000  Uiso   1.00
O7677  O     1.00874   0.64051   0.33887   0.00000  Uiso   1.00
O7678  O     1.02773   0.60608   0.34452   0.00000  Uiso   1.00
C7679  C     0.75121   1.08755   0.43424   0.00000  Uiso   1.00
O7680  O     0.73336   1.08923   0.42593   0.00000  Uiso   1.00
O7681  O     0.76963   1.08600   0.44132   0.00000  Uiso   1.00
C7682  C     0.39516   0.09974   0.15031   0.00000  Uiso   1.00
O7683  O     0.39784   0.11141   0.16631   0.00000  Uiso   1.00
O7684  O     0.39264   0.08838   0.13419   0.00000  Uiso   1.00
C7685  C     1.03149   0.58203   0.73925   0.00000  Uiso   1.00
O7686  O     1.02458   0.59421   0.75340   0.00000  Uiso   1.00
O7687  O     1.03881   0.56990   0.72532   0.00000  Uiso   1.00
C7688  C     0.17062   0.27687   0.41528   0.00000  Uiso   1.00
O7689  O     0.18737   0.28295   0.40514   0.00000  Uiso   1.00
O7690  O     0.15341   0.27103   0.42379   0.00000  Uiso   1.00
C7691  C     0.39162   0.66930   0.87637   0.00000  Uiso   1.00
O7692  O     0.39830   0.65589   0.88937   0.00000  Uiso   1.00
O7693  O     0.38432   0.68316   0.86353   0.00000  Uiso   1.00
C7694  C     0.56925   0.04934   0.30438   0.00000  Uiso   1.00
O7695  O     0.55709   0.03642   0.29662   0.00000  Uiso   1.00
O7696  O     0.58178   0.06190   0.31276   0.00000  Uiso   1.00
C7697  C     0.25499   0.57450   0.13673   0.00000  Uiso   1.00
O7698  O     0.27226   0.56684   0.13489   0.00000  Uiso   1.00
O7699  O     0.23779   0.58394   0.13899   0.00000  Uiso   1.00
C7700  C    -0.11987   0.48827   0.62328   0.00000  Uiso   1.00
O7701  O    -0.12074   0.46806   0.62356   0.00000  Uiso   1.00
O7702  O    -0.11792   0.50782   0.62204   0.00000  Uiso   1.00
C7703  C    -0.13774   0.11093   0.36681   0.00000  Uiso   1.00
O7704  O    -0.13410   0.11815   0.34824   0.00000  Uiso   1.00
O7705  O    -0.14304   0.10523   0.38543   0.00000  Uiso   1.00
C7706  C     0.58640   0.97814   0.88541   0.00000  Uiso   1.00
O7707  O     0.60417   0.98223   0.87810   0.00000  Uiso   1.00
O7708  O     0.56792   0.97554   0.89315   0.00000  Uiso   1.00
C7709  C     0.98334   0.70486   0.52376   0.00000  Uiso   1.00
O7710  O     0.99230   0.71285   0.50787   0.00000  Uiso   1.00
O7711  O     0.97340   0.69735   0.53962   0.00000  Uiso   1.00
C7712  C    -0.04399   0.34523   0.54102   0.00000  Uiso   1.00
O7713  O    -0.04135   0.35118   0.52240   0.00000  Uiso   1.00
O7714  O    -0.04686   0.33874   0.55960   0.00000  Uiso   1.00
C7715  C     0.14273   0.59271   0.68119   0.00000  Uiso   1.00
O7716  O     0.13571   0.59764   0.66352   0.00000  Uiso   1.00
O7717  O     0.15125   0.58808   0.69820   0.00000  Uiso   1.00
C7718  C     0.09060   0.23677   0.16852   0.00000  Uiso   1.00
O7719  O     0.07423   0.23284   0.15763   0.00000  Uiso   1.00
O7720  O     0.10687   0.24015   0.17961   0.00000  Uiso   1.00
C7721  C     0.50492   0.71254   1.00193   0.00000  Uiso   1.00
O7722  O     0.51593   0.72007   0.98762   0.00000  Uiso   1.00
O7723  O     0.49463   0.70528   1.01740   0.00000  Uiso   1.00
C7724  C     0.56266   0.14239   0.13730   0.00000  Uiso   1.00
O7725  O     0.56493   0.16142   0.14104   0.00000  Uiso   1.00
O7726  O     0.56123   0.12329   0.13199   0.00000  Uiso   1.00
C7727  C     0.64036   1.02066   0.12832   0.00000  Uiso   1.00
O7728  O     0.64352   1.03523   0.14163   0.00000  Uiso   1.00
O7729  O     0.63769   1.00630   0.11505   0.00000  Uiso   1.00
C7730  C     0.68876   0.86272   0.07727   0.00000  Uiso   1.00
O7731  O     0.67952   0.87659   0.06595   0.00000  Uiso   1.00
O7732  O     0.69748   0.84969   0.08864   0.00000  Uiso   1.00
C7733  C     1.33687   0.15893   0.36947   0.00000  Uiso   1.00
O7734  O     1.33559   0.16307   0.34978   0.00000  Uiso   1.00
O7735  O     1.33710   0.15577   0.38912   0.00000  Uiso   1.00
C7736  C     0.14042   0.38190   0.58288   0.00000  Uiso   1.00
O7737  O     0.13513   0.38977   0.60052   0.00000  Uiso   1.00
O7738  O     0.14607   0.37419   0.56564   0.00000  Uiso   1.00
C7739  C     0.34472  -0.05500   0.72313   0.00000  Uiso   1.00
O7740  O     0.32584  -0.05569   0.71493   0.00000  Uiso   1.00
O7741  O     0.36188  -0.05337   0.73386   0.00000  Uiso   1.00
C7742  C     0.82895   0.20774  -0.24117   0.00000  Uiso   1.00
O7743  O     0.84176   0.19723  -0.25198   0.00000  Uiso   1.00
O7744  O     0.81628   0.21886  -0.23093   0.00000  Uiso   1.00
C7745  C     0.97232   0.27102   0.35290   0.00000  Uiso   1.00
O7746  O     0.98238   0.26395   0.36838   0.00000  Uiso   1.00
O7747  O     0.96168   0.27753   0.33790   0.00000  Uiso   1.00
C7748  C     0.26686   1.30588   0.12483   0.00000  Uiso   1.00
O7749  O     0.25994   1.29353   0.13870   0.00000  Uiso   1.00
O7750  O     0.27449   1.31855   0.11181   0.00000  Uiso   1.00
C7751  C     0.79571   1.02862   0.53122   0.00000  Uiso   1.00
O7752  O     0.79837   1.04397   0.54191   0.00000  Uiso   1.00
O7753  O     0.79345   1.01274   0.51920   0.00000  Uiso   1.00
C7754  C     0.12600   0.48000   0.36101   0.00000  Uiso   1.00
O7755  O     0.11450   0.48788   0.37559   0.00000  Uiso   1.00
O7756  O     0.13846   0.47248   0.34736   0.00000  Uiso   1.00
C7757  C     0.74701   0.17943   0.14777   0.00000  Uiso   1.00
O7758  O     0.74303   0.19700   0.14010   0.00000  Uiso   1.00
O7759  O     0.75034   0.16173   0.15624   0.00000  Uiso   1.00
C7760  C     0.33496   0.90266   0.42935   0.00000  Uiso   1.00
O7761  O     0.34729   0.90342   0.44493   0.00000  Uiso   1.00
O7762  O     0.32132   0.90335   0.41407   0.00000  Uiso   1.00
C7763  C     0.84197   0.12549   0.50898   0.00000  Uiso   1.00
O7764  O     0.85406   0.13389   0.52310   0.00000  Uiso   1.00
O7765  O     0.82855   0.11825   0.49665   0.00000  Uiso   1.00
C7766  C    -0.03944  -0.03700  -0.08154   0.00000  Uiso   1.00
O7767  O    -0.03542  -0.02357  -0.06805   0.00000  Uiso   1.00
O7768  O    -0.04462  -0.05129  -0.09530   0.00000  Uiso   1.00
C7769  C     0.38074   0.20598   0.20848   0.00000  Uiso   1.00
O7770  O     0.39145   0.20485   0.19159   0.00000  Uiso   1.00
O7771  O     0.36955   0.20728   0.22506   0.00000  Uiso   1.00
C7772  C     0.83048  -0.07984  -0.16717   0.00000  Uiso   1.00
O7773  O     0.83880  -0.06559  -0.17817   0.00000  Uiso   1.00
O7774  O     0.82151  -0.09366  -0.15582   0.00000  Uiso   1.00
C7775  C     0.03216   0.07053   0.33501   0.00000  Uiso   1.00
O7776  O     0.02623   0.05313   0.32778   0.00000  Uiso   1.00
O7777  O     0.03845   0.08786   0.34226   0.00000  Uiso   1.00
C7778  C     0.59120  -0.11600   0.31217   0.00000  Uiso   1.00
O7779  O     0.59657  -0.12419   0.32930   0.00000  Uiso   1.00
O7780  O     0.58713  -0.10744   0.29443   0.00000  Uiso   1.00
C7781  C     0.60812   0.53222   0.00755   0.00000  Uiso   1.00
O7782  O     0.62705   0.53288   0.01350   0.00000  Uiso   1.00
O7783  O     0.58934   0.53081   0.00147   0.00000  Uiso   1.00
C7784  C     0.66487  -0.02854   0.42534   0.00000  Uiso   1.00
O7785  O     0.66872  -0.03483   0.40693   0.00000  Uiso   1.00
O7786  O     0.66148  -0.02134   0.44383   0.00000  Uiso   1.00
C7787  C     0.37758   0.38601   1.05517   0.00000  Uiso   1.00
O7788  O     0.36856   0.36816   1.05397   0.00000  Uiso   1.00
O7789  O     0.38708   0.40352   1.05733   0.00000  Uiso   1.00
C7790  C     0.13009   1.17867   0.19022   0.00000  Uiso   1.00
O7791  O     0.13442   1.18390   0.17152   0.00000  Uiso   1.00
O7792  O     0.12613   1.17329   0.20878   0.00000  Uiso   1.00
C7793  C     0.01644   0.17651   0.97909   0.00000  Uiso   1.00
O7794  O     0.03363   0.17356   0.96977   0.00000  Uiso   1.00
O7795  O    -0.00094   0.17922   0.98889   0.00000  Uiso   1.00
C7796  C     0.68872   0.22799   1.05356   0.00000  Uiso   1.00
O7797  O     0.69709   0.21620   1.04035   0.00000  Uiso   1.00
O7798  O     0.68111   0.23938   1.06814   0.00000  Uiso   1.00
C7799  C     0.99096   0.95549   0.23285   0.00000  Uiso   1.00
O7800  O     0.99644   0.93908   0.22276   0.00000  Uiso   1.00
O7801  O     0.98450   0.97097   0.24338   0.00000  Uiso   1.00
C7802  C     0.21536  -0.00287   0.27800   0.00000  Uiso   1.00
O7803  O     0.21403   0.01537   0.28547   0.00000  Uiso   1.00
O7804  O     0.21795  -0.02165   0.27161   0.00000  Uiso   1.00
C7805  C     0.48708   0.71505   0.86616   0.00000  Uiso   1.00
O7806  O     0.48835   0.70149   0.88080   0.00000  Uiso   1.00
O7807  O     0.48535   0.72826   0.85158   0.00000  Uiso   1.00
C7808  C     0.26548   0.77512   0.33173   0.00000  Uiso   1.00
O7809  O     0.26570   0.77949   0.31213   0.00000  Uiso   1.00
O7810  O     0.26528   0.77136   0.35114   0.00000  Uiso   1.00
C7811  C     0.71836   0.66071  -0.02142   0.00000  Uiso   1.00
O7812  O     0.71867   0.67378  -0.03662   0.00000  Uiso   1.00
O7813  O     0.71790   0.64826  -0.00594   0.00000  Uiso   1.00
C7814  C     0.10693   0.41335   1.30433   0.00000  Uiso   1.00
O7815  O     0.12104   0.40122   1.29724   0.00000  Uiso   1.00
O7816  O     0.09301   0.42570   1.31086   0.00000  Uiso   1.00
C7817  C     0.55459   1.00106   0.83041   0.00000  Uiso   1.00
O7818  O     0.54301   1.01072   0.84263   0.00000  Uiso   1.00
O7819  O     0.56848   0.99195   0.81911   0.00000  Uiso   1.00
C7820  C     0.69555   0.44954   0.83857   0.00000  Uiso   1.00
O7821  O     0.68143   0.46016   0.84864   0.00000  Uiso   1.00
O7822  O     0.70960   0.43841   0.82866   0.00000  Uiso   1.00
C7823  C     1.15540   0.91703   0.12084   0.00000  Uiso   1.00
O7824  O     1.16102   0.92175   0.13949   0.00000  Uiso   1.00
O7825  O     1.15001   0.91395   0.10183   0.00000  Uiso   1.00
C7826  C     0.15437   0.41426   0.92242   0.00000  Uiso   1.00
O7827  O     0.13633   0.40584   0.92648   0.00000  Uiso   1.00
O7828  O     0.17201   0.42225   0.91851   0.00000  Uiso   1.00
C7829  C     0.96286   0.69714   0.64270   0.00000  Uiso   1.00
O7830  O     0.98071   0.68790   0.63816   0.00000  Uiso   1.00
O7831  O     0.94484   0.70607   0.64715   0.00000  Uiso   1.00
C7832  C     0.43577   0.29354  -0.03881   0.00000  Uiso   1.00
O7833  O     0.44928   0.30126  -0.02646   0.00000  Uiso   1.00
O7834  O     0.42169   0.28550  -0.05017   0.00000  Uiso   1.00
C7835  C     0.10440   0.44907   0.69833   0.00000  Uiso   1.00
O7836  O     0.11146   0.46629   0.69169   0.00000  Uiso   1.00
O7837  O     0.09787   0.43173   0.70549   0.00000  Uiso   1.00
C7838  C    -0.17586   0.65367   0.99209   0.00000  Uiso   1.00
O7839  O    -0.19072   0.64710   0.98075   0.00000  Uiso   1.00
O7840  O    -0.16264   0.66025   1.00495   0.00000  Uiso   1.00
C7841  C     0.61427   0.31491  -0.04557   0.00000  Uiso   1.00
O7842  O     0.60771   0.31387  -0.02662   0.00000  Uiso   1.00
O7843  O     0.62110   0.31670  -0.06432   0.00000  Uiso   1.00
C7844  C    -0.10177   0.98215   0.38569   0.00000  Uiso   1.00
O7845  O    -0.09756   0.99312   0.36979   0.00000  Uiso   1.00
O7846  O    -0.10772   0.97352   0.40252   0.00000  Uiso   1.00
C7847  C     0.02513   0.40963   0.86696   0.00000  Uiso   1.00
O7848  O     0.02621   0.42618   0.87765   0.00000  Uiso   1.00
O7849  O     0.02318   0.39340   0.85547   0.00000  Uiso   1.00
C7850  C     0.09575   0.67970   0.65827   0.00000  Uiso   1.00
O7851  O     0.08404   0.67411   0.67264   0.00000  Uiso   1.00
O7852  O     0.10694   0.68559   0.64354   0.00000  Uiso   1.00
C7853  C     0.08213   0.51105   0.57813   0.00000  Uiso   1.00
O7854  O     0.09893   0.52083   0.57885   0.00000  Uiso   1.00
O7855  O     0.06445   0.50183   0.57765   0.00000  Uiso   1.00
C7856  C     0.49281   0.25086   0.07064   0.00000  Uiso   1.00
O7857  O     0.50642   0.23794   0.06450   0.00000  Uiso   1.00
O7858  O     0.47901   0.26437   0.07599   0.00000  Uiso   1.00
C7859  C     1.17225   0.41329   0.06027   0.00000  Uiso   1.00
O7860  O     1.16261   0.42784   0.05097   0.00000  Uiso   1.00
O7861  O     1.18204   0.39899   0.07020   0.00000  Uiso   1.00
C7862  C    -0.10734   0.60169   0.26023   0.00000  Uiso   1.00
O7863  O    -0.12160   0.61372   0.26762   0.00000  Uiso   1.00
O7864  O    -0.09261   0.59001   0.25436   0.00000  Uiso   1.00
C7865  C    -0.07816   0.10628   0.57892   0.00000  Uiso   1.00
O7866  O    -0.08282   0.10989   0.56019   0.00000  Uiso   1.00
O7867  O    -0.07314   0.10329   0.59773   0.00000  Uiso   1.00
C7868  C     0.86482   0.48706   0.36534   0.00000  Uiso   1.00
O7869  O     0.87173   0.50466   0.37136   0.00000  Uiso   1.00
O7870  O     0.85761   0.46950   0.35886   0.00000  Uiso   1.00
C7871  C     0.02843  -0.05123   0.91550   0.00000  Uiso   1.00
O7872  O     0.01571  -0.04861   0.93087   0.00000  Uiso   1.00
O7873  O     0.04027  -0.05380   0.89976   0.00000  Uiso   1.00
C7874  C     0.71540   1.03575   0.37607   0.00000  Uiso   1.00
O7875  O     0.70974   1.02906   0.35816   0.00000  Uiso   1.00
O7876  O     0.71968   1.04251   0.39437   0.00000  Uiso   1.00
C7877  C     1.13826   0.30079   0.24027   0.00000  Uiso   1.00
O7878  O     1.14709   0.29462   0.25684   0.00000  Uiso   1.00
O7879  O     1.12677   0.30400   0.22391   0.00000  Uiso   1.00
C7880  C     0.79690   0.21787   0.26644   0.00000  Uiso   1.00
O7881  O     0.80686   0.20866   0.25269   0.00000  Uiso   1.00
O7882  O     0.78674   0.22764   0.28030   0.00000  Uiso   1.00
C7883  C     0.30943  -0.11576   0.04964   0.00000  Uiso   1.00
O7884  O     0.32054  -0.12478   0.03651   0.00000  Uiso   1.00
O7885  O     0.29806  -0.10475   0.06172   0.00000  Uiso   1.00
C7886  C    -0.06107   0.89952  -0.24712   0.00000  Uiso   1.00
O7887  O    -0.05662   0.91560  -0.25807   0.00000  Uiso   1.00
O7888  O    -0.06604   0.88377  -0.23600   0.00000  Uiso   1.00
C7889  C     0.25823   0.17673  -0.03384   0.00000  Uiso   1.00
O7890  O     0.27058   0.18341  -0.01947   0.00000  Uiso   1.00
O7891  O     0.24687   0.17032  -0.04845   0.00000  Uiso   1.00
C7892  C     0.25862   0.90218   0.21946   0.00000  Uiso   1.00
O7893  O     0.26785   0.90379   0.23715   0.00000  Uiso   1.00
O7894  O     0.25073   0.89971   0.20096   0.00000  Uiso   1.00
C7895  C     0.72042   0.64586   0.12748   0.00000  Uiso   1.00
O7896  O     0.72126   0.64589   0.10757   0.00000  Uiso   1.00
O7897  O     0.71921   0.64625   0.14736   0.00000  Uiso   1.00
C7898  C     1.05732   0.86867   0.14865   0.00000  Uiso   1.00
O7899  O     1.07005   0.88380   0.14782   0.00000  Uiso   1.00
O7900  O     1.04317   0.85496   0.15010   0.00000  Uiso   1.00
C7901  C     0.73286   0.30872   0.26961   0.00000  Uiso   1.00
O7902  O     0.71551   0.29952   0.26566   0.00000  Uiso   1.00
O7903  O     0.75003   0.31783   0.27391   0.00000  Uiso   1.00
C7904  C     0.54519   1.01025  -0.06287   0.00000  Uiso   1.00
O7905  O     0.54175   1.00390  -0.08213   0.00000  Uiso   1.00
O7906  O     0.54951   1.01541  -0.04408   0.00000  Uiso   1.00
C7907  C     0.87210   0.28410   0.55587   0.00000  Uiso   1.00
O7908  O     0.87844   0.29637   0.54154   0.00000  Uiso   1.00
O7909  O     0.86796   0.27084   0.57035   0.00000  Uiso   1.00
C7910  C     0.70760   0.73866   0.91322   0.00000  Uiso   1.00
O7911  O     0.72618   0.74423   0.90850   0.00000  Uiso   1.00
O7912  O     0.68921   0.73255   0.91817   0.00000  Uiso   1.00
C7913  C     0.42811  -0.06606   0.56304   0.00000  Uiso   1.00
O7914  O     0.41434  -0.05826   0.57531   0.00000  Uiso   1.00
O7915  O     0.44290  -0.07431   0.55210   0.00000  Uiso   1.00
C7916  C     0.54117   0.71627   0.05387   0.00000  Uiso   1.00
O7917  O     0.54613   0.73537   0.05092   0.00000  Uiso   1.00
O7918  O     0.53790   0.69711   0.05731   0.00000  Uiso   1.00
C7919  C     0.53681   1.14706  -0.06394   0.00000  Uiso   1.00
O7920  O     0.52332   1.15552  -0.05165   0.00000  Uiso   1.00
O7921  O     0.54987   1.13840  -0.07630   0.00000  Uiso   1.00
C7922  C     0.86420   0.75608   0.62456   0.00000  Uiso   1.00
O7923  O     0.87971   0.74454   0.62868   0.00000  Uiso   1.00
O7924  O     0.84858   0.76808   0.62149   0.00000  Uiso   1.00
C7925  C     0.85130   0.02644   0.49342   0.00000  Uiso   1.00
O7926  O     0.84724   0.02813   0.47413   0.00000  Uiso   1.00
O7927  O     0.85516   0.02366   0.51254   0.00000  Uiso   1.00
C7928  C     0.11690   0.36000   0.68965   0.00000  Uiso   1.00
O7929  O     0.12676   0.37655   0.68440   0.00000  Uiso   1.00
O7930  O     0.10628   0.34414   0.69587   0.00000  Uiso   1.00
C7931  C     0.39643   1.13722   0.42038   0.00000  Uiso   1.00
O7932  O     0.40536   1.12131   0.42761   0.00000  Uiso   1.00
O7933  O     0.38805   1.15280   0.41301   0.00000  Uiso   1.00
C7934  C     0.48064   1.00983   0.80611   0.00000  Uiso   1.00
O7935  O     0.47230   0.99761   0.81935   0.00000  Uiso   1.00
O7936  O     0.48962   1.02195   0.79315   0.00000  Uiso   1.00
C7937  C     0.60132   0.54615   0.30294   0.00000  Uiso   1.00
C7938  C     0.69381  -0.19092   0.73066   0.00000  Uiso   1.00
O7939  O     0.69135  -0.17661   0.71696   0.00000  Uiso   1.00
O7940  O     0.69607  -0.20521   0.74443   0.00000  Uiso   1.00
C7941  C     0.99610   0.64372   0.04136   0.00000  Uiso   1.00
O7942  O     1.00552   0.65916   0.03306   0.00000  Uiso   1.00
O7943  O     0.98656   0.62907   0.05081   0.00000  Uiso   1.00
C7944  C     0.67238   0.24925   0.11710   0.00000  Uiso   1.00
O7945  O     0.68700   0.26330   0.12170   0.00000  Uiso   1.00
O7946  O     0.65855   0.23712   0.11026   0.00000  Uiso   1.00
C7947  C     0.49099   0.12608   0.79454   0.00000  Uiso   1.00
O7948  O     0.47401   0.12124   0.78502   0.00000  Uiso   1.00
O7949  O     0.50765   0.13055   0.80417   0.00000  Uiso   1.00
C7950  C     0.77350   0.94040   0.85328   0.00000  Uiso   1.00
O7951  O     0.77345   0.92823   0.86925   0.00000  Uiso   1.00
O7952  O     0.77403   0.95310   0.83778   0.00000  Uiso   1.00
C7953  C     0.96980   0.72718   0.80052   0.00000  Uiso   1.00
O7954  O     0.98176   0.72188   0.81575   0.00000  Uiso   1.00
O7955  O     0.95918   0.73214   0.78472   0.00000  Uiso   1.00
C7956  C    -0.11057   0.51696   0.87026   0.00000  Uiso   1.00
O7957  O    -0.09561   0.52806   0.86783   0.00000  Uiso   1.00
O7958  O    -0.12677   0.50514   0.87503   0.00000  Uiso   1.00
loop_
_geom_bond_atom_site_label_1
_geom_bond_atom_site_label_2
_geom_bond_distance
_geom_bond_site_symmetry_2
_ccdc_geom_bond_type
C1     C64     1.633   .     S
C1     C2788   1.467   .     T
C2     C36     1.559   .     D
C2     C1874   1.606   .     D
C3     C57     1.357   .     D
C3     C61     1.299   .     D
C4     C5      1.488   .     S
C4     C42     1.470   .     S
C4     C55     1.554   .     D
C5     C32     1.567   .     S
C5     C36     1.381   .     S
C5     C93     1.346   .     S
C6     C71     1.525   .     S
C6     C8      1.522   .     S
C6     C64     1.314   .     S
C6     C1852   1.488   .     S
C7     C49     1.544   .     S
C7     C335    1.456   .     S
C8     C31     1.426   .     T
C9     C213    1.500   .     D
C9     C22     1.401   .     D
C10    C80     1.323   .     S
C10    C73     1.455   .     S
C10    C53     1.522   .     S
C10    C88     1.571   .     S
C11    C20     1.500   .     S
C11    C26     1.507   .     D
C11    C40     1.501   .     S
C12    C21     1.632   .     S
C12    C77     1.568   .     D
C12    C37     1.443   .     S
C13    C78     1.616   .     S
C13    C16     1.560   .     S
C13    C43     1.414   .     S
C13    C336    1.480   .     S
C14    C60     1.376   .     T
C14    C47     1.514   .     S
C15    C58     1.611   .     S
C15    C39     1.484   .     D
C15    C1816   1.506   .     S
C16    C49     1.444   .     S
C16    C50     1.513   .     D
C17    C80     1.335   .     S
C17    C34     1.420   .     D
C17    C33     1.526   .     S
C18    C23     1.523   .     S
C18    C71     1.470   .     S
C18    C85     1.454   .     D
C19    C42     1.424   .     S
C19    C59     1.504   .     S
C19    C37     1.604   .     D
C20    C28     1.476   .     S
C20    C48     1.488   .     S
C21    C73     1.446   .     S
C21    C33     1.462   .     S
C21    C29     1.588   .     S
C22    C62     1.397   .     S
C22    C208    1.603   .     S
C23    C59     1.479   .     S
C23    C72     1.519   .     S
C23    C82     1.305   .     S
C24    C87     1.488   .     S
C24    C39     1.544   .     S
C24    C1874   1.483   .     S
C24    C1880   1.506   .     S
C25    C35     1.539   .     D
C25    C61     1.579   .     S
C26    C33     1.644   .     S
C27    C80     1.480   .     D
C27    C35     1.528   .     S
C27    C47     1.573   .     S
C28    C54     1.555   .     S
C28    C79     1.476   .     S
C28    C998    1.357   .     S
C29    C47     1.394   .     S
C29    C53     1.492   .     S
C29    C75     1.572   .     S
C30    C55     1.533   .     S
C30    C88     1.482   .     S
C30    C90     1.465   .     D
C31    C86     1.515   .     S
C32    C91     1.603   .     S
C32    C63     1.618   .     S
C32    C88     1.538   .     S
C33    C59     1.607   .     S
C34    C63     1.449   .     D
C35    C52     1.577   .     S
C37    C66     1.523   .     S
C38    C54     1.342   .     S
C38    C66     1.540   .     D
C38    C1015   1.547   .     S
C40    C78     1.295   .     S
C40    C60     1.330   .     S
C40    C84     1.624   .     S
C41    C56     1.544   .     S
C41    C83     1.560   .     T
C42    C73     1.468   .     D
C43    C51     1.297   .     S
C43    C68     1.507   .     S
C43    C319    1.367   .     S
C44    C46     1.489   .     S
C44    C56     1.513   .     S
C44    C45     1.568   .     D
C45    C92     1.591   .     S
C45    C195    1.319   .     S
C46    C67     1.609   .     D
C46    C88     1.447   .     S
C47    C74     1.456   .     S
C48    C51     1.306   .     S
C48    C68     1.338   .     S
C48    C1006   1.563   .     S
C49    C65     1.467   .     S
C49    C312    1.603   .     S
C50    C75     1.603   .     S
C50    C84     1.592   .     S
C51    C981    1.553   .     D
C52    C189    1.469   .     T
C54    C59     1.447   .     S
C54    C77     1.598   .     S
C55    C69     1.487   .     S
C56    C205    1.592   .     S
C56    C186    1.592   .     S
C57    C321    1.496   .     S
C57    C330    1.630   .     S
C58    C71     1.470   .     S
C58    C86     1.480   .     D
C61    C74     1.635   .     S
C62    C1864   1.569   .     D
C64    C85     1.565   .     S
C64    C944    1.622   .     S
C65    C74     1.310   .     S
C65    C75     1.425   .     D
C66    C89     1.578   .     S
C67    C196    1.534   .     D
C68    C84     1.537   .     D
C70    C321    1.588   .     D
C70    C74     1.574   .     S
C71    C89     1.611   .     S
C72    C86     1.528   .     S
C76    C89     1.577   .     D
C76    C944    1.561   .     S
C79    C82     1.616   .     D
C79    C1017   1.394   .     S
C81    C91     1.293   .     D
C81    C93     1.375   .     D
C83    C206    1.452   .     S
C87    C93     1.511   .     S
C87    C1860   1.440   .     D
C90    C92     1.568   .     D
C91    C92     1.586   .     S
C94    C101    1.349   .     D
C94    C108    1.554   .     S
C94    C127    1.601   .     S
C95    C102    1.544   .     S
C95    C105    1.536   .     S
C95    C148    1.451   .     S
C95    C594    1.601   .     S
C96    C177    1.523   .     S
C96    C138    1.385   .     D
C96    C1946   1.443   .     S
C97    C160    1.514   .     S
C97    C137    1.601   .     S
C97    C163    1.437   .     S
C97    C108    1.435   .     S
C98    C99     1.495   .     D
C98    C146    1.533   .     S
C98    C158    1.599   .     S
C99    C138    1.583   .     S
C99    C185    1.365   .     S
C100   C102    1.588   .     S
C100   C560    1.525   .     D
C101   C378    1.508   .     S
C102   C145    1.466   .     D
C103   C124    1.359   .     S
C103   C180    1.543   .     D
C103   C113    1.545   .     S
C104   C176    1.260   .     S
C104   C358    1.492   .     D
C104   C162    1.372   .     S
C105   C125    1.559   .     D
C105   C165    1.449   .     S
C106   C178    1.366   .     S
C106   C183    1.539   .     S
C106   C172    1.490   .     S
C106   C157    1.333   .     S
C107   C165    1.536   .     S
C107   C157    1.559   .     D
C107   C170    1.580   .     S
C108   C143    1.429   .     D
C109   C169    1.298   .     D
C109   C126    1.461   .     D
C110   C544    1.633   .     S
C110   C137    1.567   .     D
C110   C127    1.561   .     S
C111   C176    1.462   .     S
C111   C380    1.492   .     S
C111   C115    1.525   .     D
C112   C149    1.550   .     S
C112   C162    1.536   .     S
C113   C612    1.423   .     S
C114   C119    1.522   .     S
C114   C159    1.466   .     S
C114   C126    1.602   .     S
C114   C162    1.611   .     S
C115   C152    1.589   .     D
C116   C159    1.507   .     D
C116   C133    1.608   .     S
C116   C134    1.521   .     S
C117   C169    1.266   .     S
C117   C200    1.506   .     T
C118   C125    1.281   .     S
C118   C156    1.565   .     D
C118   C600    1.595   .     S
C119   C201    1.531   .     T
C120   C133    1.595   .     D
C120   C172    1.439   .     S
C121   C158    1.502   .     S
C122   C1946   1.570   .     S
C122   C1951   1.344   .     S
C122   C182    1.566   .     S
C122   C140    1.523   .     S
C123   C136    1.543   .     D
C123   C151    1.483   .     S
C123   C163    1.569   .     S
C124   C142    1.370   .     D
C124   C1893   1.564   .     S
C126   C139    1.604   .     S
C127   C811    1.305   .     S
C127   C551    1.584   .     S
C128   C136    1.503   .     S
C128   C178    1.500   .     D
C128   C149    1.587   .     S
C129   C149    1.505   .     S
C129   C157    1.564   .     S
C129   C174    1.494   .     D
C130   C184    1.493   .     D
C130   C158    1.487   .     S
C130   C153    1.516   .     S
C131   C181    1.300   .     S
C131   C193    1.537   .     T
C132   C166    1.626   .     S
C132   C183    1.567   .     T
C133   C161    1.613   .     S
C134   C135    1.558   .     S
C134   C166    1.544   .     S
C134   C146    1.594   .     S
C135   C214    1.434   .     D
C135   C171    1.610   .     S
C137   C155    1.483   .     S
C138   C168    1.431   .     S
C139   C209    1.502   .     S
C139   C179    1.434   .     S
C139   C200    1.603   .     S
C141   C176    1.279   .     D
C141   C162    1.385   .     S
C143   C155    1.271   .     D
C144   C351    1.261   .     S
C144   C169    1.481   .     S
C145   C151    1.270   .     D
C146   C172    1.476   .     D
C147   C153    1.545   .     S
C148   C155    1.594   .     S
C148   C518    1.473   .     D
C149   C173    1.273   .     S
C150   C185    1.465   .     D
C151   C165    1.605   .     S
C152   C167    1.589   .     S
C152   C357    1.427   .     S
C153   C165    1.553   .     S
C153   C180    1.481   .     S
C154   C156    1.514   .     D
C154   C617    1.404   .     S
C154   C1893   1.482   .     S
C158   C170    1.519   .     S
C160   C374    1.593   .     D
C164   C175    1.542   .     S
C164   C1905   1.574   .     S
C164   C1939   1.545   .     D
C167   C173    1.531   .     D
C167   C174    1.580   .     S
C168   C192    1.604   .     D
C171   C181    1.544   .     T
C175   C184    1.348   .     D
C175   C180    1.594   .     S
C177   C207    1.540   .     D
C177   C1979   1.308   .     S
C182   C185    1.597   .     S
C182   C1937   1.439   .     D
C186   C213    1.627   .     S
C187   C191    1.630   .     D
C187   C203    1.507   .     D
C188   C190    1.468   .     S
C188   C194    1.542   .     S
C188   C208    1.530   .     D
C190   C212    1.524   .     D
C190   C210    1.584   .     S
C191   C210    1.500   .     D
C192   C207    1.490   .     S
C192   C193    1.478   .     S
C194   C216    1.560   .     S
C194   C1991   1.498   .     S
C194   C1864   1.613   .     S
C195   C211    1.460   .     D
C195   C215    1.523   .     S
C196   C205    1.555   .     D
C197   C209    1.304   .     S
C197   C217    1.280   .     S
C198   C202    1.600   .     T
C199   C206    1.469   .     T
C201   C209    1.573   .     S
C202   C211    1.507   .     S
C203   C207    1.463   .     S
C203   C1963   1.539   .     S
C204   C217    1.605   .     S
C208   C1965   1.569   .     S
C209   C214    1.433   .     S
C210   C1966   1.499   .     S
C211   C213    1.528   .     S
C214   C218    1.267   .     S
C217   C218    1.439   .     D
C219   C222    1.397   .     S
C220   C225    1.471   .     S
C220   C247    1.566   .     S
C220   C275    1.461   .     D
C221   C222    1.561   .     S
C221   C299    1.567   .     S
C221   C676    1.506   .     S
C221   C699    1.325   .     S
C222   C256    1.592   .     S
C222   C277    1.563   .     S
C223   C288    1.536   .     S
C223   C293    1.570   .     S
C223   C300    1.564   .     S
C223   C268    1.538   .     S
C224   C268    1.574   .     S
C224   C278    1.502   .     D
C224   C257    1.476   .     S
C225   C255    1.310   .     S
C226   C233    1.261   .     S
C226   C237    1.427   .     D
C226   C253    1.536   .     S
C227   C247    1.538   .     S
C227   C238    1.534   .     D
C227   C683    1.589   .     S
C228   C234    1.523   .     S
C228   C291    1.310   .     T
C229   C286    1.589   .     D
C229   C1153   1.477   .     S
C230   C277    1.490   .     S
C231   C244    1.574   .     D
C231   C293    1.525   .     D
C232   C273    1.538   .     S
C232   C248    1.637   .     T
C233   C263    1.650   .     D
C233   C240    1.495   .     S
C234   C241    1.526   .     S
C234   C243    1.614   .     D
C235   C287    1.299   .     D
C235   C295    1.565   .     S
C236   C246    1.656   .     S
C236   C275    1.567   .     S
C236   C264    1.263   .     S
C236   C268    1.558   .     S
C237   C250    1.569   .     S
C237   C243    1.548   .     S
C238   C689    1.521   .     D
C239   C246    1.575   .     D
C239   C293    1.366   .     S
C240   C292    1.410   .     S
C240   C271    1.526   .     S
C240   C1142   1.437   .     S
C241   C262    1.527   .     D
C241   C290    1.518   .     S
C242   C302    1.438   .     S
C242   C280    1.656   .     S
C242   C300    1.612   .     D
C243   C274    1.543   .     S
C244   C245    1.553   .     S
C244   C280    1.549   .     S
C245   C340    1.604   .     D
C245   C287    1.565   .     S
C246   C260    1.621   .     S
C247   C267    1.509   .     S
C247   C299    1.615   .     S
C248   C280    1.458   .     S
C249   C266    1.474   .     S
C249   C1155   1.560   .     D
C250   C295    1.430   .     S
C250   C334    1.574   .     D
C251   C706    1.553   .     D
C251   C686    1.477   .     D
C252   C255    1.475   .     S
C252   C270    1.455   .     D
C252   C689    1.510   .     S
C253   C298    1.630   .     D
C254   C1116   1.684   .     S
C255   C267    1.547   .     S
C255   C281    1.493   .     S
C256   C296    1.581   .     S
C256   C272    1.563   .     S
C256   C264    1.328   .     S
C257   C281    1.569   .     D
C258   C260    1.497   .     S
C258   C259    1.601   .     D
C258   C272    1.481   .     S
C259   C303    1.631   .     S
C259   C365    1.341   .     S
C260   C285    1.598   .     S
C260   C300    1.613   .     S
C261   C267    1.427   .     D
C261   C282    1.496   .     S
C261   C699    1.515   .     S
C262   C289    1.480   .     D
C263   C286    1.476   .     S
C263   C1149   1.679   .     S
C264   C278    1.457   .     D
C265   C298    1.479   .     S
C265   C290    1.506   .     S
C266   C1179   1.471   .     T
C269   C273    1.444   .     S
C269   C285    1.314   .     S
C269   C302    1.565   .     S
C269   C369    1.509   .     S
C270   C706    1.374   .     S
C271   C274    1.636   .     D
C271   C291    1.392   .     S
C272   C349    1.574   .     S
C272   C375    1.624   .     S
C273   C279    1.543   .     D
C275   C289    1.526   .     S
C276   C284    1.559   .     S
C276   C297    1.559   .     S
C276   C305    1.535   .     S
C276   C280    1.574   .     S
C277   C349    1.521   .     S
C277   C769    1.551   .     S
C279   C389    1.556   .     S
C279   C294    1.660   .     S
C281   C290    1.604   .     S
C283   C289    1.384   .     S
C283   C290    1.453   .     S
C284   C316    1.604   .     S
C286   C298    1.498   .     S
C287   C328    1.478   .     S
C292   C295    1.588   .     S
C292   C331    1.468   .     S
C292   C1159   1.485   .     S
C294   C302    1.358   .     S
C294   C377    1.566   .     D
C295   C343    1.533   .     S
C296   C299    1.363   .     D
C297   C313    1.548   .     D
C297   C301    1.575   .     S
C302   C303    1.541   .     S
C303   C387    1.565   .     D
C304   C339    1.599   .     S
C304   C311    1.564   .     S
C304   C1216   1.474   .     S
C304   C1220   1.567   .     S
C305   C309    1.270   .     D
C306   C318    1.596   .     S
C306   C330    1.550   .     S
C306   C315    1.314   .     D
C307   C326    1.498   .     D
C307   C311    1.491   .     S
C307   C331    1.533   .     S
C308   C344    1.569   .     D
C308   C313    1.543   .     S
C308   C323    1.378   .     S
C309   C324    1.531   .     S
C309   C345    1.391   .     S
C310   C314    1.575   .     D
C310   C333    1.488   .     S
C310   C319    1.478   .     S
C311   C343    1.441   .     D
C312   C318    1.589   .     D
C313   C395    1.472   .     S
C314   C335    1.558   .     S
C314   C338    1.562   .     S
C315   C335    1.587   .     S
C315   C317    1.620   .     S
C316   C324    1.491   .     S
C316   C332    1.578   .     S
C316   C317    1.527   .     S
C317   C328    1.487   .     D
C318   C321    1.495   .     S
C319   C341    1.589   .     S
C319   C1012   1.588   .     S
C320   C339    1.647   .     S
C320   C346    1.520   .     S
C320   C322    1.578   .     D
C322   C335    1.584   .     S
C323   C329    1.536   .     D
C324   C344    1.586   .     D
C325   C334    1.471   .     S
C325   C342    1.461   .     D
C325   C343    1.492   .     S
C327   C337    1.564   .     T
C327   C347    1.565   .     S
C328   C346    1.366   .     S
C329   C348    1.522   .     S
C329   C395    1.372   .     S
C330   C332    1.491   .     D
C331   C1220   1.566   .     S
C331   C1116   1.661   .     S
C333   C396    1.531   .     S
C336   C338    1.262   .     T
C337   C339    1.478   .     S
C339   C394    1.395   .     S
C340   C345    1.308   .     D
C341   C1231   1.490   .     S
C342   C345    1.538   .     S
C342   C347    1.311   .     S
C346   C347    1.517   .     D
C348   C384    1.521   .     S
C348   C397    1.656   .     D
C349   C356    1.567   .     S
C350   C361    1.596   .     S
C350   C363    1.555   .     D
C350   C374    1.528   .     S
C351   C352    1.417   .     S
C351   C384    1.279   .     S
C351   C386    1.603   .     S
C352   C397    1.425   .     D
C353   C356    1.491   .     S
C354   C364    1.513   .     S
C354   C814    1.451   .     S
C355   C359    1.461   .     D
C356   C388    1.544   .     D
C357   C370    1.356   .     S
C357   C363    1.512   .     S
C357   C382    1.487   .     S
C358   C370    1.575   .     S
C358   C379    1.363   .     S
C359   C378    1.581   .     S
C359   C382    1.511   .     S
C360   C369    1.565   .     D
C360   C386    1.355   .     S
C361   C393    1.587   .     S
C361   C378    1.571   .     S
C361   C362    1.581   .     S
C362   C372    1.446   .     S
C362   C792    1.441   .     D
C364   C392    1.492   .     S
C364   C383    1.549   .     S
C364   C366    1.610   .     S
C365   C367    1.592   .     D
C365   C381    1.480   .     S
C366   C378    1.484   .     S
C366   C373    1.517   .     D
C367   C375    1.365   .     D
C368   C385    1.512   .     D
C368   C390    1.527   .     D
C369   C385    1.268   .     S
C371   C390    1.530   .     S
C371   C393    1.565   .     D
C371   C381    1.501   .     S
C372   C392    1.589   .     S
C372   C809    1.577   .     D
C373   C777    1.342   .     D
C374   C376    1.418   .     S
C376   C811    1.425   .     D
C377   C384    1.557   .     S
C379   C386    1.575   .     D
C380   C391    1.659   .     D
C380   C382    1.594   .     S
C381   C383    1.549   .     D
C382   C390    1.560   .     S
C384   C389    1.649   .     S
C385   C391    1.409   .     S
C387   C391    1.582   .     S
C388   C392    1.526   .     S
C389   C395    1.462   .     D
C392   C393    1.421   .     S
C394   C1188   1.534   .     S
C394   C396    1.475   .     S
C396   C1218   1.538   .     S
C396   C1203   1.479   .     S
C398   C412    1.522   .     S
C398   C469    1.644   .     S
C398   C1433   1.399   .     S
C398   C1440   1.541   .     S
C399   C439    1.471   .     D
C400   C423    1.619   .     S
C400   C429    1.504   .     S
C400   C442    1.509   .     S
C400   C419    1.519   .     S
C401   C445    1.543   .     S
C401   C422    1.491   .     T
C402   C451    1.326   .     S
C402   C474    1.467   .     S
C402   C410    1.557   .     S
C402   C416    1.488   .     S
C403   C478    1.264   .     T
C403   C626    1.583   .     S
C404   C429    1.544   .     T
C404   C466    1.578   .     S
C405   C412    1.541   .     S
C405   C434    1.602   .     S
C405   C468    1.428   .     S
C405   C447    1.452   .     S
C406   C484    1.487   .     S
C406   C457    1.472   .     D
C407   C473    1.472   .     S
C407   C457    1.453   .     S
C407   C466    1.556   .     S
C407   C443    1.562   .     S
C408   C417    1.556   .     D
C408   C458    1.585   .     D
C409   C421    1.536   .     S
C409   C424    1.360   .     S
C409   C640    1.596   .     S
C409   C438    1.592   .     S
C410   C449    1.554   .     S
C410   C430    1.505   .     S
C410   C438    1.593   .     S
C411   C441    1.317   .     S
C411   C478    1.533   .     S
C411   C644    1.466   .     S
C411   C418    1.448   .     S
C412   C481    1.550   .     S
C413   C472    1.627   .     S
C413   C439    1.537   .     S
C413   C447    1.560   .     S
C413   C1427   1.557   .     S
C413   Cu3569  2.251   .     S
C414   C462    1.534   .     S
C414   C448    1.520   .     S
C415   C423    1.614   .     S
C415   C465    1.482   .     S
C415   C2247   1.521   .     S
C415   Cu3308  1.839   .     S
C416   C456    1.266   .     T
C417   C461    1.587   .     S
C417   C465    1.264   .     S
C418   C452    1.472   .     D
C418   C454    1.472   .     S
C419   C420    1.302   .     S
C419   C461    1.491   .     S
C419   C490    1.497   .     S
C421   C511    1.457   .     D
C423   C426    1.555   .     S
C424   C514    1.397   .     S
C424   C770    1.455   .     S
C424   C451    1.592   .     S
C425   C486    1.652   .     D
C425   C428    1.562   .     S
C425   C469    1.566   .     S
C426   C477    1.605   .     S
C426   C2266   1.570   .     S
C426   C2257   1.495   .     S
C427   C435    1.543   .     S
C427   C450    1.444   .     S
C427   C463    1.583   .     D
C428   C461    1.487   .     S
C428   C440    1.526   .     D
C430   C435    1.459   .     S
C430   C448    1.514   .     S
C431   C448    1.558   .     S
C431   C457    1.459   .     S
C431   C476    1.567   .     S
C432   C460    1.295   .     S
C432   C484    1.516   .     D
C432   C453    1.559   .     S
C433   C479    1.335   .     D
C433   C481    1.559   .     D
C434   C443    1.587   .     S
C434   C436    1.612   .     S
C435   C446    1.574   .     S
C435   C456    1.570   .     S
C436   C464    1.521   .     S
C436   C485    1.390   .     S
C436   C490    1.569   .     S
C437   C449    1.521   .     S
C437   C471    1.380   .     S
C437   C507    1.283   .     D
C439   C468    1.594   .     S
C440   C2234   1.471   .     D
C441   C472    1.535   .     D
C441   C630    1.501   .     S
C442   C2203   1.566   .     S
C443   C467    1.578   .     S
C443   C479    1.518   .     S
C444   C446    1.558   .     S
C444   C445    1.557   .     S
C445   C504    1.323   .     D
C446   C471    1.514   .     S
C446   C484    1.554   .     S
C447   C1433   1.604   .     S
C448   C475    1.492   .     S
C449   C513    1.537   .     D
C450   C466    1.533   .     S
C451   C660    1.634   .     D
C452   C470    1.572   .     S
C452   C625    1.505   .     S
C453   C466    1.596   .     S
C453   C482    1.495   .     D
C454   C483    1.514   .     D
C454   C476    1.596   .     S
C455   C1457   1.500   .     T
C458   C1390   1.615   .     S
C458   C2206   1.557   .     S
C459   C471    1.392   .     S
C459   C488    1.613   .     D
C459   C510    1.302   .     S
C460   C473    1.429   .     D
C460   Cu3287  2.075   .     S
C461   C2210   1.497   .     S
C462   C621    1.517   .     D
C462   C631    1.530   .     S
C463   C475    1.664   .     S
C464   C469    1.585   .     S
C464   Cu3652  2.090   .     S
C465   C485    1.440   .     D
C467   C476    1.567   .     S
C467   C480    1.374   .     D
C468   C480    1.455   .     D
C469   C1365   1.270   .     S
C470   C475    1.552   .     S
C470   C476    1.369   .     S
C471   C506    1.566   .     S
C472   C483    1.491   .     S
C472   Cu3569  1.910   .     S
C474   C631    1.268   .     S
C474   C475    1.563   .     S
C477   C487    1.524   .     S
C477   C482    1.548   .     D
C479   C490    1.348   .     S
C481   C486    1.536   .     S
C486   C490    1.473   .     S
C487   C489    1.563   .     D
C488   C489    1.574   .     S
C489   C523    1.664   .     S
C491   C525    1.523   .     S
C492   C493    1.452   .     D
C492   C522    1.512   .     S
C492   C2303   1.557   .     S
C493   C508    1.435   .     S
C494   C521    1.298   .     D
C494   C505    1.461   .     S
C494   C501    1.314   .     S
C495   C503    1.494   .     T
C496   C516    1.545   .     S
C496   C517    1.565   .     S
C496   C2286   1.443   .     D
C497   C502    1.522   .     S
C497   C505    1.602   .     T
C498   C522    1.286   .     S
C499   C509    1.578   .     T
C500   C511    1.533   .     S
C500   C521    1.266   .     S
C500   C568    1.506   .     D
C501   C511    1.577   .     S
C501   C507    1.592   .     S
C501   C513    1.588   .     S
C502   C569    1.531   .     S
C503   C2304   1.401   .     S
C504   C519    1.525   .     S
C506   C524    1.499   .     T
C507   C515    1.435   .     S
C508   C526    1.300   .     D
C508   C550    1.537   .     S
C509   C519    1.503   .     S
C510   C515    1.328   .     D
C510   C519    1.493   .     S
C512   C767    1.261   .     S
C512   C521    1.481   .     S
C512   C514    1.575   .     D
C513   C514    1.416   .     S
C515   C524    1.527   .     S
C516   C526    1.618   .     D
C516   C522    1.603   .     S
C517   C527    1.491   .     S
C517   C2288   1.280   .     D
C519   C527    1.527   .     S
C520   C549    1.604   .     S
C522   C527    1.555   .     S
C523   C527    1.599   .     S
C525   C586    1.540   .     D
C525   C2360   1.308   .     S
C528   C534    1.496   .     S
C528   C539    1.605   .     S
C529   C581    1.499   .     S
C529   C2397   1.557   .     T
C530   C799    1.564   .     S
C530   C570    1.532   .     S
C530   C566    1.505   .     D
C531   C552    1.606   .     S
C531   C547    1.630   .     S
C531   C556    1.414   .     S
C531   C575    1.507   .     S
C532   C533    1.477   .     S
C532   C574    1.352   .     D
C532   C589    1.637   .     S
C533   C561    1.513   .     S
C533   C620    1.501   .     S
C533   C567    1.566   .     S
C534   C583    1.556   .     S
C534   C570    1.510   .     S
C534   C801    1.370   .     S
C535   C607    1.305   .     D
C535   C781    1.583   .     S
C535   C592    1.324   .     S
C536   C595    1.381   .     S
C536   C556    1.561   .     D
C536   C614    1.615   .     S
C537   C610    1.385   .     S
C537   C616    1.536   .     S
C537   C587    1.427   .     S
C537   C603    1.503   .     S
C538   C595    1.478   .     S
C538   C576    1.592   .     D
C538   C587    1.542   .     S
C539   C599    1.738   .     S
C539   C573    1.376   .     D
C540   C572    1.598   .     S
C540   C557    1.404   .     D
C541   C607    1.495   .     S
C541   C545    1.597   .     D
C541   C803    1.569   .     S
C542   C591    1.424   .     S
C542   C592    1.348   .     D
C542   C580    1.565   .     S
C543   C551    1.523   .     D
C543   C590    1.476   .     S
C543   C592    1.657   .     S
C544   C560    1.456   .     S
C544   C572    1.537   .     S
C544   C590    1.410   .     S
C545   C583    1.488   .     D
C546   C610    1.414   .     S
C546   C590    1.565   .     D
C546   C563    1.448   .     S
C548   C565    1.573   .     D
C549   C586    1.490   .     S
C549   C550    1.478   .     S
C549   C556    1.458   .     S
C550   C571    1.485   .     D
C552   C554    1.406   .     D
C552   C589    1.575   .     S
C553   C615    1.496   .     S
C553   C2409   1.335   .     D
C554   C606    1.503   .     S
C554   C2394   1.462   .     S
C555   C564    1.625   .     S
C555   C582    1.572   .     S
C555   C593    1.611   .     S
C555   C587    1.533   .     S
C557   C610    1.502   .     S
C557   C580    1.627   .     S
C558   C580    1.404   .     S
C558   C605    1.594   .     D
C559   C584    1.501   .     D
C559   C616    1.685   .     S
C559   C589    1.338   .     S
C560   C565    1.530   .     S
C561   C597    1.620   .     S
C561   C619    1.437   .     S
C561   C616    1.659   .     S
C562   C588    1.304   .     T
C562   C608    1.280   .     S
C563   C597    1.308   .     S
C564   C578    1.593   .     T
C565   C597    1.426   .     S
C567   C600    1.509   .     D
C568   C577    1.603   .     S
C569   C573    1.566   .     S
C569   C577    1.530   .     S
C569   C588    1.573   .     S
C570   C577    1.565   .     S
C572   C591    1.635   .     D
C573   C598    1.599   .     S
C574   C603    1.333   .     S
C575   C586    1.463   .     S
C575   C2394   1.514   .     S
C575   C2326   1.539   .     S
C576   C598    1.591   .     S
C576   C608    1.605   .     S
C577   C609    1.461   .     S
C578   C616    1.555   .     S
C579   C585    1.482   .     T
C580   C604    1.433   .     S
C581   C617    1.544   .     D
C581   C620    1.543   .     S
C582   C595    1.556   .     D
C582   C585    1.554   .     S
C583   C599    1.574   .     S
C584   C613    1.446   .     D
C589   C601    1.287   .     S
C591   C786    1.509   .     S
C594   C597    1.519   .     S
C594   C600    1.444   .     S
C594   C612    1.595   .     S
C596   C611    1.562   .     S
C596   C612    1.290   .     S
C598   C605    1.489   .     S
C598   C609    1.501   .     S
C599   C604    1.552   .     S
C599   C605    1.335   .     S
C601   C603    1.426   .     D
C602   C786    1.380   .     D
C602   C604    1.627   .     D
C606   C613    1.516   .     D
C606   C618    1.557   .     S
C608   C614    1.439   .     D
C611   C619    1.304   .     D
C611   C620    1.491   .     S
C612   C617    1.519   .     S
C615   C620    1.638   .     S
C615   C618    1.459   .     S
C615   C2386   1.536   .     S
C621   C635    1.457   .     D
C622   C639    1.393   .     D
C622   C623    1.595   .     D
C623   C635    1.510   .     S
C623   C663    1.288   .     S
C624   C630    1.605   .     S
C625   C638    1.417   .     S
C625   C646    1.315   .     D
C626   C638    1.553   .     D
C626   C644    1.592   .     S
C627   C629    1.566   .     S
C627   C658    1.547   .     D
C627   C651    1.491   .     S
C628   C639    1.316   .     D
C628   C643    1.497   .     S
C628   C642    1.581   .     S
C629   C652    1.299   .     S
C629   C656    1.565   .     S
C630   C653    1.607   .     S
C630   C1426   1.590   .     S
C631   C638    1.572   .     S
C631   C660    1.512   .     S
C632   C654    1.410   .     S
C633   C634    1.553   .     S
C633   C648    1.549   .     T
C634   C748    1.604   .     D
C634   C652    1.565   .     S
C635   C650    1.480   .     S
C636   C656    1.430   .     S
C636   C737    1.574   .     D
C637   C649    1.529   .     T
C637   C771    1.479   .     S
C640   C661    1.462   .     S
C640   C663    1.414   .     S
C641   C653    1.509   .     S
C641   C1393   1.267   .     T
C642   C659    1.552   .     S
C642   C651    1.512   .     D
C644   C662    1.485   .     S
C645   C650    1.559   .     S
C645   C657    1.559   .     S
C645   C665    1.535   .     S
C645   C648    1.574   .     S
C647   C773    1.556   .     D
C647   C655    1.660   .     S
C649   C662    1.556   .     S
C650   C687    1.604   .     D
C651   C662    1.619   .     S
C652   C710    1.478   .     S
C652   C659    1.272   .     S
C653   C662    1.601   .     S
C654   C656    1.588   .     S
C654   C721    1.468   .     S
C654   C1535   1.485   .     S
C655   C770    1.566   .     D
C655   C663    1.475   .     S
C656   C758    1.533   .     S
C657   C681    1.548   .     S
C657   C661    1.575   .     S
C658   C1540   1.540   .     S
C660   C663    1.625   .     S
C661   C734    1.386   .     D
C664   C678    1.564   .     S
C664   C1611   1.474   .     D
C664   C1617   1.567   .     S
C665   C668    1.621   .     D
C665   C671    1.270   .     S
C666   C707    1.498   .     D
C666   C678    1.491   .     S
C666   C721    1.533   .     S
C667   C722    1.538   .     S
C667   C691    1.306   .     S
C667   C806    1.311   .     S
C667   C669    1.322   .     S
C668   C742    1.626   .     S
C668   C717    1.505   .     S
C669   C759    1.569   .     S
C669   C681    1.543   .     S
C669   C693    1.378   .     S
C670   C741    1.354   .     S
C670   C754    1.315   .     D
C671   C743    1.573   .     S
C671   C694    1.531   .     S
C671   C761    1.391   .     S
C672   C747    1.406   .     S
C672   C724    1.417   .     D
C672   C678    1.495   .     S
C673   C757    1.523   .     S
C673   C735    1.483   .     S
C673   C762    1.543   .     D
C674   C735    1.608   .     D
C674   C743    1.570   .     S
C674   C719    1.561   .     S
C675   C711    1.269   .     D
C675   C749    1.287   .     S
C675   C688    1.341   .     S
C676   C685    1.477   .     S
C676   C769    1.538   .     D
C677   C727    1.497   .     D
C677   C696    1.461   .     D
C678   C758    1.441   .     S
C679   C713    1.598   .     S
C679   C724    1.545   .     D
C679   C1606   1.505   .     S
C680   C740    1.449   .     S
C680   C741    1.333   .     S
C680   C726    1.657   .     D
C681   C742    1.635   .     S
C681   C778    1.472   .     S
C682   C740    1.332   .     S
C682   C689    1.457   .     S
C682   C695    1.521   .     S
C682   C741    1.336   .     S
C683   C699    1.619   .     D
C683   C740    1.535   .     S
C684   C740    1.530   .     S
C684   C702    1.459   .     D
C684   C757    1.395   .     S
C685   C709    1.560   .     S
C685   C739    1.538   .     S
C685   C705    1.616   .     S
C686   C749    1.315   .     S
C686   C714    1.328   .     S
C687   C694    1.491   .     D
C688   C714    1.389   .     S
C688   C728    1.283   .     S
C688   C697    1.381   .     S
C690   C700    1.613   .     D
C690   C698    1.609   .     D
C691   C799    1.604   .     S
C691   C693    1.264   .     D
C692   C704    1.484   .     D
C692   C729    1.407   .     S
C693   C712    1.536   .     S
C694   C759    1.586   .     S
C695   C700    1.630   .     D
C695   C706    1.646   .     S
C696   C757    1.587   .     S
C696   C704    1.573   .     S
C697   C1595   1.405   .     T
C698   C726    1.493   .     S
C698   C735    1.500   .     S
C701   C756    1.601   .     S
C701   C737    1.471   .     S
C701   C755    1.461   .     S
C701   C758    1.492   .     S
C702   C745    1.544   .     D
C703   C719    1.560   .     S
C704   C723    1.581   .     S
C705   C745    1.319   .     D
C705   C757    1.447   .     S
C708   C715    1.546   .     T
C708   C737    1.495   .     S
C709   C727    1.535   .     S
C709   C791    1.442   .     S
C709   C750    1.436   .     S
C710   C763    1.366   .     T
C711   C741    1.305   .     S
C711   C754    1.417   .     S
C712   C766    1.522   .     D
C712   C778    1.372   .     S
C713   C732    1.404   .     T
C714   C1565   1.540   .     D
C715   C746    1.483   .     S
C716   C749    1.372   .     D
C716   C754    1.353   .     S
C716   C733    1.488   .     S
C717   C729    1.304   .     D
C718   C733    1.272   .     D
C718   C751    1.519   .     D
C719   C746    1.595   .     S
C719   C755    1.336   .     S
C720   C722    1.587   .     S
C720   C738    1.536   .     S
C720   C723    1.543   .     S
C720   C730    1.556   .     S
C721   C1617   1.566   .     S
C721   C1523   1.661   .     S
C722   C765    1.568   .     S
C723   C750    1.512   .     S
C723   C762    1.604   .     S
C725   C748    1.553   .     S
C728   C733    1.399   .     S
C728   C751    1.555   .     S
C728   C1604   1.579   .     S
C729   C743    1.472   .     S
C730   C743    1.529   .     S
C730   C759    1.544   .     D
C731   C747    1.603   .     S
C731   C752    1.573   .     D
C731   C760    1.636   .     S
C732   C1633   1.443   .     S
C736   C739    1.603   .     S
C736   C764    1.441   .     S
C736   C794    1.392   .     S
C736   C750    1.456   .     S
C738   C798    1.596   .     D
C738   C774    1.496   .     S
C739   C744    1.564   .     S
C739   C812    1.303   .     S
C742   C774    1.483   .     D
C744   C814    1.426   .     T
C746   C752    1.500   .     S
C746   C756    1.286   .     S
C747   C756    1.561   .     D
C748   C761    1.308   .     S
C750   C790    1.538   .     S
C751   C760    1.517   .     S
C753   C760    1.603   .     D
C755   C761    1.538   .     D
C764   C765    1.555   .     T
C766   C772    1.521   .     S
C766   C797    1.656   .     S
C767   C768    1.417   .     D
C767   C772    1.279   .     S
C768   C797    1.425   .     D
C769   C812    1.274   .     S
C770   C772    1.557   .     S
C771   C1535   1.489   .     D
C771   C1551   1.663   .     S
C772   C773    1.649   .     S
C773   C778    1.462   .     S
C775   C811    1.641   .     S
C776   C777    1.302   .     S
C777   C792    1.512   .     S
C778   C787    1.529   .     S
C779   C782    1.395   .     D
C779   C799    1.496   .     S
C780   C795    1.599   .     D
C780   C805    1.538   .     S
C781   C802    1.318   .     S
C781   C795    1.487   .     S
C781   C803    1.554   .     S
C782   C805    1.432   .     S
C782   C801    1.362   .     S
C783   C785    1.290   .     S
C783   C794    1.618   .     S
C783   C808    1.585   .     D
C784   C802    1.643   .     S
C784   C793    1.523   .     D
C785   C809    1.374   .     D
C785   C813    1.405   .     S
C786   C795    1.628   .     S
C787   C806    1.504   .     D
C788   C790    1.598   .     D
C788   C804    1.536   .     S
C788   C807    1.532   .     S
C789   C799    1.589   .     S
C789   C801    1.393   .     D
C789   C797    1.479   .     S
C790   C798    1.521   .     S
C791   C800    1.449   .     D
C791   C812    1.508   .     S
C792   C815    1.522   .     S
C793   C816    1.512   .     S
C793   C807    1.585   .     S
C794   C800    1.436   .     S
C794   C807    1.502   .     S
C796   C816    1.523   .     D
C796   C804    1.476   .     D
C802   C815    1.403   .     S
C802   C808    1.558   .     S
C803   C817    1.517   .     S
C803   C805    1.583   .     S
C804   C806    1.442   .     S
C805   C816    1.535   .     S
C807   C817    1.602   .     S
C808   C817    1.508   .     S
C810   C817    1.514   .     S
C812   C813    1.627   .     S
C818   C1073   1.484   .     S
C818   C824    1.442   .     S
C818   C821    1.379   .     D
C819   C859    1.574   .     D
C820   C822    1.443   .     S
C820   C898    1.491   .     D
C820   C2672   1.506   .     S
C821   C876    1.579   .     S
C822   C852    1.477   .     S
C823   C828    1.541   .     D
C823   C857    1.602   .     S
C823   C892    1.428   .     S
C824   C870    1.591   .     D
C824   C894    1.595   .     S
C825   C843    1.554   .     D
C825   C834    1.556   .     S
C825   C878    1.585   .     S
C826   C839    1.536   .     S
C826   C844    1.360   .     S
C826   C1077   1.596   .     S
C826   C867    1.592   .     S
C827   C841    1.523   .     S
C827   C903    1.389   .     S
C827   C861    1.475   .     S
C827   C857    1.529   .     S
C828   C908    1.550   .     D
C829   C885    1.534   .     S
C829   C874    1.520   .     S
C829   C880    1.447   .     S
C829   C887    1.318   .     S
C830   C863    1.467   .     D
C830   C890    1.482   .     S
C830   C2678   1.521   .     S
C831   C863    1.501   .     S
C831   C883    1.549   .     S
C831   C2632   1.284   .     D
C832   C840    1.453   .     S
C832   C880    1.366   .     S
C832   C848    1.466   .     S
C832   C887    1.370   .     S
C833   C851    1.517   .     S
C833   C921    1.432   .     S
C833   C867    1.523   .     S
C833   C880    1.462   .     S
C834   C882    1.587   .     S
C834   C890    1.264   .     S
C835   C876    1.472   .     S
C835   C877    1.472   .     S
C836   C907    1.454   .     S
C836   C855    1.503   .     D
C836   C853    1.433   .     S
C837   C871    1.556   .     S
C837   C861    1.592   .     S
C837   C883    1.495   .     S
C838   C882    1.491   .     S
C838   C914    1.497   .     S
C841   C850    1.546   .     S
C841   C900    1.450   .     S
C841   C853    1.520   .     S
C842   C899    1.563   .     S
C842   C884    1.597   .     D
C843   C2674   1.322   .     D
C844   C1157   1.455   .     S
C844   C875    1.592   .     D
C845   C913    1.652   .     S
C845   C847    1.562   .     D
C845   C893    1.566   .     S
C846   C888    1.473   .     S
C847   C882    1.487   .     S
C847   C869    1.526   .     S
C849   C1508   1.415   .     S
C849   C1297   1.357   .     S
C850   C874    1.558   .     D
C850   C902    1.567   .     S
C851   C858    1.476   .     T
C852   C904    1.446   .     S
C852   C924    1.478   .     S
C852   C910    1.536   .     S
C853   C884    1.540   .     D
C854   C905    1.335   .     S
C854   C879    1.527   .     D
C854   C908    1.559   .     S
C855   C856    1.518   .     D
C856   C948    1.432   .     S
C856   C899    1.448   .     S
C857   C872    1.587   .     S
C857   C865    1.612   .     S
C859   C896    1.533   .     S
C859   C910    1.627   .     S
C860   C873    1.401   .     S
C860   C1309   1.368   .     D
C861   C895    1.595   .     S
C861   C911    1.476   .     S
C862   C873    1.480   .     S
C862   C879    1.521   .     S
C862   C1297   1.428   .     D
C864   C873    1.530   .     S
C865   C888    1.521   .     S
C865   C911    1.390   .     S
C865   C914    1.569   .     S
C866   C913    1.435   .     S
C866   C1344   1.477   .     T
C868   C887    1.266   .     D
C868   C909    1.625   .     D
C869   C1278   1.473   .     S
C869   C2668   1.471   .     D
C870   C891    1.567   .     S
C871   C900    1.522   .     T
C872   C891    1.578   .     S
C872   C905    1.518   .     D
C873   C906    1.593   .     S
C874   C901    1.492   .     S
C875   C1092   1.634   .     S
C876   C894    1.572   .     S
C876   C1059   1.505   .     S
C877   C909    1.514   .     D
C877   C902    1.596   .     S
C878   C2626   1.557   .     D
C879   C1309   1.299   .     S
C881   C1066   1.523   .     D
C881   C1073   1.552   .     D
C882   C2630   1.497   .     S
C883   C898    1.381   .     S
C883   C910    1.474   .     S
C885   C1052   1.517   .     D
C885   C1065   1.530   .     S
C886   C912    1.471   .     S
C886   C890    1.469   .     S
C886   C2635   1.384   .     S
C888   C893    1.585   .     D
C889   C896    1.458   .     D
C889   C915    1.504   .     D
C890   C911    1.440   .     S
C891   C902    1.567   .     S
C891   C906    1.374   .     S
C892   C906    1.455   .     D
C894   C901    1.552   .     S
C894   C902    1.369   .     S
C895   C912    1.302   .     D
C896   C923    1.589   .     S
C897   C1065   1.268   .     S
C897   C901    1.563   .     D
C898   C912    1.600   .     S
C899   C931    1.583   .     S
C899   C910    1.623   .     S
C904   C943    1.416   .     S
C904   C2730   1.295   .     S
C905   C914    1.348   .     S
C908   C913    1.536   .     S
C913   C914    1.473   .     S
C915   C918    1.492   .     S
C915   C937    1.510   .     S
C916   C928    1.560   .     S
C916   C922    1.571   .     T
C917   C925    1.401   .     D
C917   C919    1.326   .     D
C919   C952    1.488   .     D
C920   C947    1.520   .     D
C920   C928    1.487   .     S
C920   C953    1.545   .     S
C921   C930    1.432   .     T
C922   C924    1.519   .     S
C923   C928    1.566   .     S
C923   C943    1.424   .     S
C923   C924    1.565   .     S
C924   C931    1.502   .     S
C925   C946    1.397   .     S
C926   C950    1.442   .     D
C926   C2752   1.478   .     S
C927   C938    1.461   .     S
C928   C952    1.554   .     S
C929   C939    1.439   .     S
C929   C954    1.465   .     S
C930   C942    1.508   .     S
C931   C953    1.460   .     S
C932   C945    1.544   .     S
C932   C938    1.463   .     S
C932   C951    1.560   .     D
C933   C943    1.465   .     S
C933   C2752   1.504   .     S
C933   C2710   1.392   .     D
C934   C936    1.489   .     S
C934   C945    1.513   .     S
C934   C935    1.568   .     S
C934   C939    1.518   .     S
C935   C955    1.591   .     D
C935   C982    1.319   .     S
C936   C949    1.609   .     T
C937   C942    1.593   .     D
C937   C948    1.518   .     S
C938   C947    1.591   .     S
C938   C942    1.540   .     S
C939   C947    1.615   .     S
C939   C952    1.487   .     S
C940   C943    1.514   .     S
C940   C2712   1.574   .     T
C941   C970    1.469   .     S
C944   C1041   1.545   .     S
C944   C2792   1.393   .     S
C945   C1004   1.592   .     S
C945   C956    1.592   .     S
C946   C950    1.502   .     S
C946   C2746   1.569   .     S
C946   C2720   1.489   .     S
C948   C953    1.388   .     D
C949   C983    1.534   .     S
C950   C954    1.532   .     S
C951   C1011   1.452   .     S
C954   C955    1.568   .     D
C957   C1007   1.499   .     S
C957   C1039   1.487   .     S
C957   C2833   1.557   .     D
C958   C1213   1.564   .     S
C958   C1001   1.501   .     S
C958   C997    1.532   .     S
C958   C992    1.505   .     S
C959   C960    1.477   .     S
C959   C1002   1.352   .     D
C960   C986    1.513   .     S
C960   C1050   1.501   .     S
C960   C993    1.566   .     S
C961   C972    1.507   .     S
C961   C1022   1.410   .     T
C962   C1009   1.556   .     S
C962   C997    1.510   .     D
C962   C1217   1.370   .     S
C963   C972    1.521   .     S
C963   C1008   1.274   .     S
C963   C1032   1.422   .     S
C964   C989    1.580   .     S
C964   C1004   1.427   .     S
C964   C1027   1.427   .     D
C965   C1040   1.385   .     S
C965   C1046   1.536   .     S
C965   C1014   1.427   .     S
C965   C1034   1.503   .     S
C966   C979    1.542   .     S
C967   C978    1.626   .     S
C967   C989    1.455   .     S
C967   C994    1.515   .     S
C967   C1038   1.458   .     S
C968   C999    1.598   .     D
C968   C1006   1.526   .     S
C968   C984    1.404   .     S
C969   C974    1.597   .     S
C970   C1001   1.502   .     S
C970   C1031   1.546   .     D
C971   C1005   1.565   .     S
C972   C1012   1.323   .     S
C972   C1013   1.504   .     S
C973   C1021   1.461   .     S
C973   C996    1.504   .     D
C973   C2767   1.378   .     S
C974   C1009   1.488   .     D
C974   C1010   1.566   .     S
C975   C1040   1.414   .     S
C975   C987    1.585   .     D
C975   C988    1.448   .     S
C976   C1002   1.405   .     S
C976   C1019   1.624   .     S
C976   C1020   1.570   .     S
C976   C994    1.663   .     S
C977   C991    1.573   .     D
C977   C998    1.487   .     S
C977   C1017   1.474   .     S
C978   C985    1.601   .     S
C978   C1034   1.540   .     D
C979   C1037   1.560   .     S
C979   C2817   1.498   .     S
C979   C2746   1.613   .     S
C980   C1045   1.496   .     D
C980   C996    1.302   .     D
C981   C1008   1.616   .     S
C982   C1023   1.460   .     D
C982   C1029   1.523   .     S
C983   C1004   1.555   .     D
C983   C1038   1.533   .     S
C984   C1040   1.502   .     D
C984   C1005   1.627   .     S
C985   C1005   1.404   .     S
C985   C1036   1.594   .     D
C986   C1026   1.620   .     S
C986   C1049   1.437   .     S
C986   C1046   1.659   .     S
C987   C1020   1.543   .     D
C988   C1026   1.308   .     D
C990   C1003   1.593   .     D
C990   C1013   1.548   .     S
C991   C1026   1.426   .     S
C992   C1011   1.469   .     D
C993   C1044   1.587   .     T
C994   C1029   1.587   .     S
C995   C1016   1.469   .     S
C995   C1029   1.505   .     S
C998   C1030   1.610   .     D
C1000  C1043   1.514   .     D
C1001  C1027   1.476   .     S
C1001  C1011   1.525   .     S
C1002  C1034   1.333   .     S
C1003  C1030   1.544   .     S
C1003  C1046   1.555   .     S
C1005  C1035   1.433   .     S
C1006  C1013   1.562   .     D
C1007  C1047   1.544   .     D
C1007  C1050   1.543   .     S
C1008  C1012   1.534   .     S
C1008  C1228   1.553   .     S
C1009  C1028   1.574   .     S
C1010  C1036   1.574   .     S
C1010  C1043   1.459   .     S
C1010  C1027   1.538   .     S
C1012  C1218   1.511   .     S
C1015  C1017   1.489   .     S
C1015  C1049   1.654   .     S
C1015  C1030   1.291   .     S
C1016  C1020   1.558   .     S
C1016  C1038   1.514   .     D
C1017  C1025   1.637   .     S
C1018  C1201   1.463   .     D
C1018  C1209   1.574   .     D
C1019  C1044   1.556   .     S
C1019  C1033   1.553   .     D
C1021  C1024   1.536   .     D
C1021  C2776   1.551   .     S
C1025  C1041   1.562   .     S
C1025  C1042   1.290   .     D
C1028  C1035   1.552   .     D
C1028  C1036   1.335   .     S
C1029  C1048   1.437   .     S
C1031  C1043   1.422   .     S
C1032  C1199   1.380   .     S
C1032  C1201   1.589   .     S
C1032  C1035   1.627   .     S
C1033  C1048   1.595   .     S
C1037  C1048   1.511   .     D
C1041  C1049   1.304   .     S
C1041  C1050   1.491   .     S
C1042  C1047   1.519   .     D
C1045  C1050   1.638   .     S
C1051  C1056   1.397   .     S
C1051  C1058   1.579   .     D
C1051  C1501   1.562   .     S
C1052  C1070   1.457   .     D
C1053  C1067   1.595   .     S
C1053  C1064   1.548   .     S
C1053  C1061   1.610   .     D
C1054  C1069   1.486   .     S
C1054  C1070   1.510   .     D
C1054  C1098   1.288   .     S
C1055  C1075   1.582   .     S
C1055  C1057   1.294   .     D
C1056  C1072   1.592   .     D
C1056  C1085   1.563   .     S
C1057  C1091   1.530   .     S
C1057  C1060   1.543   .     S
C1058  C1067   1.571   .     S
C1059  C1071   1.417   .     S
C1059  C1064   1.586   .     D
C1060  C1085   1.490   .     S
C1060  C1510   1.534   .     D
C1061  C1063   1.482   .     S
C1062  C1067   1.459   .     S
C1062  C1080   1.413   .     S
C1062  C1063   1.634   .     D
C1063  C1481   1.521   .     S
C1064  C1066   1.541   .     S
C1065  C1071   1.572   .     S
C1065  C1092   1.512   .     S
C1066  C1088   1.421   .     S
C1067  C1091   1.502   .     S
C1068  C1082   1.533   .     S
C1068  C1093   1.587   .     S
C1068  C1095   1.583   .     S
C1068  C1078   1.520   .     S
C1069  C1096   1.438   .     S
C1069  C1093   1.612   .     D
C1072  C1083   1.563   .     S
C1073  C1080   1.507   .     S
C1074  C1076   1.497   .     S
C1074  C1075   1.601   .     S
C1074  C1083   1.481   .     S
C1074  C1078   1.511   .     S
C1075  C1097   1.631   .     S
C1075  C1125   1.341   .     S
C1076  C1087   1.598   .     D
C1076  C1093   1.613   .     S
C1077  C1094   1.462   .     D
C1077  C1098   1.414   .     S
C1078  C1091   1.554   .     D
C1079  C1080   1.466   .     S
C1079  C1515   1.290   .     D
C1080  C1508   1.444   .     S
C1081  C1084   1.444   .     S
C1081  C1087   1.314   .     D
C1081  C1096   1.565   .     S
C1083  C1105   1.574   .     S
C1083  C1146   1.624   .     S
C1084  C1086   1.543   .     S
C1084  C1175   1.370   .     D
C1085  C1105   1.521   .     S
C1085  C1533   1.551   .     S
C1086  C1183   1.556   .     D
C1086  C1089   1.660   .     S
C1088  C1095   1.338   .     S
C1089  C1096   1.358   .     S
C1089  C1157   1.566   .     S
C1089  C1098   1.475   .     S
C1090  C1099   1.548   .     T
C1090  C1094   1.575   .     S
C1092  C1095   1.626   .     S
C1092  C1098   1.625   .     S
C1094  C1103   1.386   .     S
C1095  C1097   1.594   .     S
C1096  C1097   1.541   .     S
C1099  C1190   1.472   .     S
C1100  C1213   1.604   .     S
C1100  C1101   1.264   .     T
C1101  C1102   1.536   .     S
C1102  C1104   1.522   .     D
C1102  C1190   1.372   .     S
C1104  C1166   1.521   .     S
C1104  C1207   1.656   .     S
C1105  C1120   1.567   .     S
C1106  C1138   1.623   .     S
C1106  C1161   1.357   .     S
C1106  C1115   1.368   .     S
C1107  C1182   1.613   .     S
C1107  C1565   1.649   .     D
C1107  C1587   1.579   .     S
C1108  C1112   1.566   .     D
C1108  C1121   1.583   .     S
C1108  C1161   1.473   .     S
C1109  C1152   1.678   .     D
C1109  C1120   1.491   .     S
C1109  C1140   1.604   .     S
C1110  C1121   1.541   .     D
C1111  C1136   1.631   .     S
C1111  C1165   1.401   .     S
C1111  C1120   1.596   .     S
C1111  C1146   1.416   .     S
C1113  C1177   1.461   .     S
C1113  C1171   1.542   .     T
C1114  C1144   1.532   .     D
C1114  C1156   1.477   .     D
C1115  C1143   1.529   .     S
C1115  C1167   1.467   .     D
C1116  C1186   1.474   .     S
C1116  C1123   1.587   .     S
C1117  C1138   1.557   .     S
C1117  C1127   1.566   .     D
C1117  C1574   1.545   .     S
C1118  C1124   1.312   .     S
C1118  C1174   1.456   .     S
C1118  C1136   1.550   .     D
C1119  C1129   1.360   .     D
C1119  C1149   1.382   .     D
C1120  C1178   1.544   .     S
C1121  C1153   1.570   .     S
C1122  C1177   1.272   .     S
C1122  C1160   1.531   .     S
C1122  C1132   1.596   .     S
C1122  C1134   1.331   .     S
C1123  C1139   1.627   .     S
C1123  C1142   1.333   .     S
C1124  C1132   1.403   .     D
C1124  C1171   1.357   .     S
C1125  C1128   1.592   .     D
C1126  C1137   1.618   .     S
C1126  C1161   1.592   .     S
C1126  C1150   1.351   .     S
C1126  C1156   1.651   .     S
C1127  C1578   1.401   .     D
C1128  C1174   1.610   .     S
C1128  C1146   1.365   .     S
C1129  C1137   1.646   .     S
C1129  C1177   1.542   .     S
C1130  C1148   1.522   .     D
C1130  C1173   1.539   .     S
C1130  C1156   1.519   .     S
C1131  C1186   1.522   .     T
C1131  C1139   1.615   .     S
C1133  C1158   1.338   .     S
C1133  C1178   1.474   .     T
C1134  C1135   1.567   .     S
C1134  C1163   1.435   .     D
C1135  C1170   1.510   .     D
C1135  C1222   1.573   .     S
C1136  C1144   1.550   .     S
C1137  C1153   1.484   .     S
C1138  C1154   1.431   .     S
C1138  C1182   1.571   .     S
C1139  C1163   1.280   .     S
C1139  C1177   1.445   .     S
C1140  C1145   1.540   .     D
C1140  C1592   1.492   .     S
C1141  C1143   1.632   .     S
C1141  C1145   1.449   .     S
C1141  C1158   1.468   .     S
C1141  C1578   1.592   .     S
C1142  C1169   1.603   .     D
C1143  C1154   1.581   .     S
C1143  C1164   1.565   .     S
C1144  C1164   1.605   .     S
C1145  C1176   1.521   .     S
C1147  C1154   1.581   .     D
C1147  C1587   1.623   .     D
C1148  C1172   1.439   .     D
C1149  C1153   1.527   .     S
C1151  C1181   1.500   .     D
C1151  C1173   1.533   .     S
C1151  C1165   1.451   .     S
C1155  C1182   1.568   .     S
C1155  C1577   1.537   .     S
C1157  C1166   1.557   .     D
C1158  C1592   1.307   .     S
C1161  C1172   1.569   .     S
C1162  C1168   1.578   .     S
C1162  C1180   1.574   .     S
C1162  C1184   1.570   .     S
C1162  C1163   1.663   .     S
C1164  C1173   1.620   .     S
C1164  C1176   1.327   .     S
C1165  C1176   1.425   .     D
C1166  C1183   1.649   .     S
C1167  C1172   1.589   .     S
C1167  C1173   1.402   .     S
C1168  C1196   1.603   .     D
C1170  C1206   1.458   .     S
C1174  C1181   1.525   .     D
C1179  C1182   1.468   .     S
C1180  C1193   1.480   .     D
C1183  C1190   1.462   .     S
C1184  C1187   1.557   .     S
C1184  C1189   1.549   .     S
C1184  C1211   1.352   .     S
C1185  C1198   1.559   .     S
C1185  C1195   1.524   .     S
C1185  C1209   1.569   .     D
C1187  C1208   1.544   .     S
C1187  C1220   1.379   .     S
C1188  C1226   1.606   .     S
C1188  C1193   1.626   .     S
C1188  C1203   1.472   .     S
C1189  C1221   1.573   .     S
C1189  C1204   1.628   .     S
C1189  C1227   1.577   .     S
C1190  C1200   1.529   .     S
C1191  C1194   1.395   .     D
C1191  C1213   1.496   .     S
C1192  C1198   1.500   .     S
C1192  C1219   1.538   .     T
C1193  C1220   1.264   .     S
C1194  C1219   1.432   .     S
C1194  C1217   1.362   .     S
C1195  C1197   1.543   .     D
C1195  C1217   1.547   .     S
C1196  C1204   1.523   .     D
C1197  C1206   1.285   .     S
C1198  C1215   1.450   .     D
C1200  C1229   1.597   .     S
C1201  C1223   1.508   .     S
C1202  C1213   1.589   .     S
C1202  C1217   1.393   .     S
C1202  C1207   1.479   .     D
C1204  C1226   1.570   .     S
C1205  C1212   1.574   .     S
C1205  C1230   1.537   .     S
C1205  C1215   1.552   .     D
C1206  C1227   1.545   .     S
C1206  C1229   1.501   .     S
C1208  C1216   1.434   .     T
C1210  C1231   1.598   .     D
C1211  C1222   1.629   .     S
C1212  C1221   1.631   .     D
C1212  C1226   1.483   .     S
C1214  C1222   1.629   .     S
C1218  C1223   1.641   .     S
C1222  C1227   1.429   .     S
C1223  C1226   1.602   .     S
C1223  C1230   1.458   .     S
C1224  C1227   1.323   .     S
C1224  C1232   1.435   .     T
C1225  C1229   1.601   .     S
C1228  C1230   1.533   .     S
C1229  C1232   1.271   .     S
C1230  C1231   1.539   .     S
C1233  C1254   1.549   .     D
C1233  C1247   1.574   .     S
C1233  C3066   1.553   .     S
C1234  C1235   1.336   .     S
C1235  C1246   1.526   .     S
C1235  C1247   1.497   .     S
C1235  C1270   1.597   .     S
C1236  C1356   1.454   .     D
C1237  C1241   1.536   .     S
C1237  C1244   1.360   .     S
C1237  C1462   1.596   .     S
C1237  C1249   1.592   .     S
C1238  C1253   1.554   .     D
C1238  C1249   1.593   .     D
C1239  C1285   1.432   .     D
C1239  C1249   1.523   .     S
C1240  C1262   1.454   .     T
C1241  C1323   1.595   .     S
C1241  C1409   1.457   .     D
C1242  C1256   1.288   .     T
C1242  C1430   1.564   .     S
C1243  C3066   1.380   .     S
C1243  C3072   1.302   .     T
C1244  C1424   1.397   .     S
C1244  C1534   1.455   .     D
C1245  C1261   1.446   .     D
C1245  C1296   1.478   .     S
C1245  C1264   1.536   .     S
C1246  C1266   1.589   .     D
C1247  C1258   1.533   .     S
C1247  C1264   1.627   .     S
C1248  C1253   1.521   .     S
C1248  C1259   1.380   .     S
C1248  C1400   1.283   .     D
C1250  C1252   1.558   .     S
C1250  C1251   1.557   .     T
C1251  C1394   1.323   .     S
C1252  C1259   1.514   .     S
C1252  C1266   1.554   .     D
C1253  C1419   1.537   .     S
C1254  C1270   1.574   .     S
C1254  C3037   1.545   .     S
C1255  C1259   1.392   .     S
C1255  C1268   1.613   .     D
C1255  C1405   1.302   .     S
C1256  C3061   1.519   .     S
C1257  C1258   1.458   .     D
C1258  C1295   1.589   .     S
C1259  C1399   1.566   .     S
C1260  C1313   1.583   .     S
C1260  C1264   1.623   .     D
C1261  C1324   1.416   .     S
C1261  C3114   1.295   .     S
C1263  C1268   1.318   .     S
C1263  C1431   1.536   .     S
C1263  C1270   1.595   .     S
C1265  C1267   1.552   .     S
C1265  C1270   1.595   .     S
C1265  C3060   1.343   .     D
C1267  C1269   1.563   .     D
C1268  C1269   1.574   .     S
C1269  C1452   1.664   .     S
C1271  C1337   1.633   .     D
C1272  C1488   1.409   .     D
C1272  C1283   1.549   .     D
C1273  C1281   1.560   .     S
C1273  C1323   1.576   .     S
C1273  C1479   1.592   .     S
C1273  C1494   1.501   .     S
C1274  C1327   1.357   .     S
C1274  C1333   1.299   .     D
C1274  C1283   1.542   .     S
C1275  C1294   1.571   .     S
C1276  C1343   1.525   .     S
C1276  C1278   1.522   .     S
C1276  C1337   1.314   .     S
C1276  C3133   1.488   .     S
C1277  C1281   1.366   .     S
C1277  C1333   1.281   .     S
C1279  C1349   1.297   .     S
C1279  C1473   1.458   .     S
C1279  C1332   1.329   .     D
C1280  C1357   1.545   .     D
C1281  C1500   1.634   .     S
C1281  C1327   1.283   .     S
C1282  C1341   1.562   .     T
C1282  C1318   1.481   .     S
C1283  C1316   1.532   .     S
C1284  C1302   1.507   .     D
C1284  C1314   1.501   .     S
C1284  C1340   1.288   .     S
C1285  C1303   1.521   .     S
C1285  C1308   1.432   .     S
C1286  C1298   1.632   .     S
C1286  C1307   1.529   .     S
C1286  C1348   1.568   .     S
C1286  C1310   1.443   .     S
C1287  C1331   1.473   .     S
C1287  C1326   1.432   .     S
C1287  C1332   1.376   .     S
C1287  C1319   1.514   .     S
C1288  C1335   1.498   .     S
C1289  C1329   1.611   .     T
C1289  C3089   1.506   .     S
C1290  C1326   1.436   .     D
C1290  C1297   1.305   .     S
C1290  C1302   1.500   .     S
C1291  C1335   1.528   .     D
C1291  C1328   1.507   .     S
C1292  C1299   1.523   .     S
C1292  C1343   1.470   .     S
C1292  C1356   1.454   .     S
C1293  C1330   1.504   .     S
C1293  C1310   1.604   .     S
C1294  C1296   1.519   .     S
C1294  C1328   1.481   .     S
C1294  C1361   1.617   .     S
C1295  C1324   1.424   .     D
C1295  C1296   1.565   .     S
C1296  C1313   1.502   .     S
C1298  C1305   1.462   .     D
C1298  C1304   1.588   .     S
C1299  C1330   1.479   .     S
C1299  C1344   1.519   .     S
C1299  C1353   1.305   .     S
C1300  C1334   1.486   .     T
C1300  C1339   1.604   .     S
C1301  C1328   1.340   .     S
C1301  C1315   1.378   .     T
C1302  C1305   1.644   .     S
C1304  C1319   1.394   .     D
C1304  C1346   1.572   .     S
C1305  C1330   1.607   .     S
C1306  C1351   1.509   .     S
C1307  C1318   1.532   .     S
C1307  C1312   1.342   .     S
C1308  C1322   1.508   .     D
C1308  C1355   1.464   .     S
C1309  C1353   1.486   .     S
C1310  C1339   1.523   .     S
C1310  C1358   1.416   .     S
C1311  C1325   1.342   .     S
C1311  C1339   1.540   .     S
C1312  C1334   1.562   .     S
C1312  C1358   1.439   .     S
C1312  C1361   1.513   .     S
C1313  C1357   1.460   .     S
C1313  C1360   1.571   .     S
C1314  C1349   1.295   .     S
C1314  C1332   1.330   .     S
C1314  C1354   1.624   .     S
C1315  C3126   1.486   .     S
C1316  C1336   1.510   .     S
C1316  C1322   1.564   .     D
C1317  C1324   1.465   .     S
C1317  C3081   1.392   .     S
C1318  C1336   1.581   .     S
C1318  C1351   1.611   .     S
C1319  C1345   1.456   .     S
C1320  C1338   1.467   .     D
C1320  C1471   1.603   .     S
C1321  C1346   1.603   .     S
C1321  C1354   1.592   .     T
C1323  C1355   1.596   .     D
C1325  C1330   1.447   .     S
C1325  C1348   1.598   .     D
C1327  C1478   1.496   .     S
C1327  C1488   1.630   .     S
C1328  C3087   1.556   .     S
C1329  C1343   1.470   .     S
C1331  C1464   1.546   .     S
C1331  C1477   1.486   .     S
C1333  C1345   1.635   .     S
C1335  C1358   1.545   .     S
C1336  C1346   1.550   .     S
C1336  C1352   1.332   .     S
C1337  C1356   1.565   .     S
C1338  C1345   1.310   .     S
C1338  C1346   1.425   .     S
C1339  C1359   1.578   .     S
C1341  C1358   1.566   .     S
C1342  C1477   1.485   .     S
C1342  C1478   1.588   .     S
C1342  C1345   1.574   .     S
C1343  C1359   1.611   .     S
C1347  C1359   1.577   .     D
C1350  C1353   1.616   .     D
C1351  C1357   1.357   .     S
C1351  C1361   1.309   .     S
C1360  C1361   1.290   .     S
C1362  C1436   1.437   .     D
C1363  C1398   1.546   .     S
C1363  C1385   1.270   .     S
C1363  C1413   1.361   .     D
C1364  C1372   1.478   .     D
C1364  C1381   1.557   .     S
C1364  C1436   1.391   .     S
C1365  C1367   1.291   .     S
C1365  C1390   1.386   .     S
C1365  C1416   1.590   .     S
C1365  Cu3652  2.095   .     S
C1366  C1411   1.466   .     S
C1366  C1440   1.666   .     S
C1367  C1397   1.359   .     S
C1367  C1458   1.543   .     S
C1367  C1382   1.545   .     S
C1368  C1449   1.530   .     T
C1368  C1381   1.497   .     S
C1369  C1455   1.260   .     S
C1369  C1525   1.492   .     D
C1369  C1435   1.372   .     S
C1370  C1398   1.559   .     D
C1370  C1441   1.449   .     S
C1371  C1402   1.540   .     D
C1371  C1417   1.275   .     S
C1371  C1443   1.481   .     S
C1372  C1538   1.495   .     D
C1373  C1441   1.536   .     S
C1373  C1414   1.416   .     S
C1373  C1429   1.559   .     S
C1373  C1448   1.580   .     S
C1374  C1446   1.298   .     T
C1374  C1387   1.314   .     S
C1375  C1392   1.494   .     S
C1375  C1383   1.615   .     S
C1375  C1430   1.479   .     S
C1375  C3203   1.422   .     S
C1376  C1389   1.549   .     S
C1376  C1404   1.402   .     S
C1376  C1454   1.515   .     S
C1376  C1402   1.434   .     S
C1377  C1455   1.462   .     S
C1377  C1537   1.492   .     S
C1377  C1412   1.379   .     S
C1377  C1384   1.525   .     S
C1378  C1447   1.565   .     S
C1378  C1417   1.600   .     D
C1379  C1418   1.550   .     D
C1379  C1435   1.536   .     D
C1380  C1391   1.451   .     D
C1380  C1439   1.545   .     D
C1380  Cu3605  1.694   .     S
C1381  C1427   1.265   .     S
C1381  C1426   1.388   .     S
C1382  C1440   1.573   .     D
C1383  C1434   1.524   .     D
C1383  C1439   1.401   .     S
C1384  C1421   1.589   .     D
C1384  C1423   1.461   .     S
C1385  C1388   1.308   .     D
C1385  C1434   1.537   .     S
C1386  C1398   1.281   .     S
C1386  C1388   1.466   .     D
C1386  C1428   1.565   .     S
C1387  C1409   1.577   .     S
C1387  C1400   1.592   .     S
C1387  C1419   1.588   .     S
C1390  C1397   1.278   .     S
C1390  C1438   1.593   .     S
C1391  C1395   1.490   .     D
C1391  Cu3605  2.179   .     S
C1392  C3223   1.401   .     S
C1392  C3061   1.550   .     S
C1394  C1445   1.525   .     D
C1394  C1437   1.489   .     S
C1395  C1453   1.595   .     S
C1395  C3240   1.389   .     S
C1396  C1403   1.543   .     D
C1396  C1420   1.483   .     S
C1396  C1436   1.569   .     S
C1397  C1408   1.370   .     S
C1397  C3181   1.564   .     S
C1399  C1454   1.499   .     S
C1399  C1417   1.675   .     S
C1400  C1432   1.435   .     S
C1401  C1418   1.505   .     S
C1401  C1429   1.564   .     D
C1401  C1451   1.494   .     S
C1402  C1406   1.466   .     S
C1403  C1427   1.545   .     D
C1404  C1445   1.503   .     S
C1404  C1460   1.504   .     S
C1404  Cu3602  1.952   .     S
C1405  C1432   1.328   .     D
C1405  C1445   1.493   .     S
C1406  C1460   1.577   .     S
C1406  C1461   1.546   .     S
C1406  C1437   1.532   .     S
C1407  C1455   1.279   .     D
C1407  C1435   1.385   .     S
C1407  C1459   1.542   .     S
C1410  C1522   1.261   .     D
C1410  C1446   1.481   .     S
C1410  C1424   1.575   .     S
C1411  C1420   1.270   .     S
C1411  C1433   1.603   .     S
C1411  C1457   1.554   .     S
C1412  C1424   1.502   .     S
C1412  C1447   1.561   .     D
C1413  C1428   1.374   .     S
C1413  C3180   1.570   .     S
C1414  C1442   1.548   .     D
C1414  C1456   1.485   .     S
C1415  C1433   1.538   .     S
C1415  C1416   1.590   .     S
C1415  C1422   1.545   .     S
C1415  Cu3570  1.793   .     S
C1418  C1450   1.273   .     S
C1419  C1424   1.416   .     S
C1420  C1441   1.605   .     S
C1421  C1444   1.589   .     S
C1421  C1524   1.427   .     S
C1422  C1441   1.553   .     S
C1422  C1458   1.481   .     D
C1423  C1459   1.518   .     S
C1423  C1451   1.565   .     S
C1423  C1443   1.503   .     S
C1425  C1428   1.514   .     D
C1425  C3181   1.482   .     S
C1426  C1538   1.542   .     S
C1427  Cu3569  1.901   .     S
C1430  C3182   1.565   .     D
C1431  C1452   1.467   .     D
C1431  C3046   1.265   .     S
C1432  C1454   1.527   .     S
C1434  C3188   1.431   .     S
C1438  C1453   1.542   .     D
C1438  C3194   1.574   .     S
C1439  C1460   1.565   .     S
C1442  C1451   1.499   .     S
C1444  C1450   1.531   .     D
C1444  C1451   1.580   .     S
C1447  C1459   1.498   .     S
C1448  C1460   1.536   .     S
C1449  C1450   1.446   .     S
C1453  C1458   1.594   .     S
C1454  C1459   1.493   .     S
C1456  C1461   1.389   .     T
C1462  C1463   1.462   .     T
C1463  C1494   1.386   .     S
C1464  C1492   1.497   .     D
C1464  C1508   1.568   .     S
C1465  C1466   1.511   .     S
C1465  C1497   1.597   .     D
C1465  C1485   1.598   .     S
C1466  C1482   1.529   .     S
C1466  C1484   1.555   .     S
C1466  C1519   1.285   .     S
C1467  C1481   1.505   .     S
C1468  C1490   1.538   .     S
C1468  C1475   1.306   .     S
C1468  C1621   1.311   .     S
C1468  C1469   1.322   .     S
C1469  C1511   1.569   .     S
C1469  C1472   1.543   .     S
C1469  C1479   1.378   .     S
C1470  C1474   1.477   .     S
C1470  C1533   1.538   .     D
C1471  C1476   1.589   .     D
C1471  C1485   1.440   .     S
C1472  C1502   1.635   .     D
C1472  C1563   1.472   .     S
C1473  C1485   1.496   .     S
C1474  C1486   1.560   .     S
C1474  C1499   1.538   .     S
C1474  C1483   1.616   .     S
C1475  C1500   1.554   .     D
C1475  C1479   1.264   .     S
C1476  C1497   1.590   .     S
C1476  C1478   1.495   .     S
C1477  C1513   1.481   .     S
C1477  C1485   1.552   .     S
C1478  C1507   1.539   .     S
C1479  C1487   1.536   .     S
C1480  C1493   1.586   .     S
C1480  C1497   1.498   .     S
C1480  C1514   1.571   .     S
C1480  C1516   1.564   .     S
C1481  C1508   1.552   .     S
C1481  C1512   1.447   .     S
C1482  C1504   1.682   .     S
C1482  C1514   1.588   .     D
C1483  C1504   1.319   .     D
C1484  C1505   1.461   .     D
C1484  C1512   1.624   .     S
C1486  C1585   1.442   .     D
C1486  C1506   1.436   .     S
C1487  C1520   1.522   .     D
C1487  C1563   1.372   .     S
C1488  C1495   1.491   .     S
C1489  C1490   1.587   .     S
C1489  C1498   1.536   .     S
C1489  C1491   1.543   .     S
C1489  C1493   1.556   .     S
C1490  C1518   1.568   .     D
C1491  C1506   1.512   .     S
C1491  C1514   1.604   .     S
C1492  C1515   1.613   .     S
C1492  C1519   1.569   .     S
C1493  C1511   1.544   .     D
C1494  C1495   1.424   .     D
C1496  C1499   1.603   .     S
C1496  C1517   1.441   .     S
C1496  C1593   1.392   .     S
C1496  C1506   1.456   .     S
C1498  C1601   1.596   .     D
C1498  C1553   1.496   .     S
C1499  C1503   1.564   .     S
C1499  C1628   1.303   .     S
C1500  C1507   1.602   .     S
C1501  C1504   1.563   .     S
C1501  C1505   1.287   .     D
C1502  C1553   1.483   .     D
C1503  C1510   1.336   .     S
C1506  C1583   1.538   .     S
C1507  C1516   1.457   .     D
C1509  C1517   1.535   .     D
C1509  C1519   1.449   .     S
C1510  C1515   1.592   .     S
C1513  C1519   1.533   .     S
C1516  C1518   1.572   .     S
C1517  C1518   1.555   .     S
C1520  C1542   1.521   .     S
C1522  C1542   1.279   .     S
C1522  C1544   1.603   .     S
C1523  C1555   1.474   .     S
C1523  C1527   1.587   .     D
C1524  C1532   1.356   .     T
C1525  C1532   1.575   .     S
C1525  C1536   1.363   .     S
C1526  C1544   1.355   .     S
C1527  C1530   1.627   .     S
C1528  C1555   1.522   .     S
C1528  C1530   1.615   .     D
C1529  C1541   1.569   .     D
C1530  C1541   1.280   .     S
C1531  C1543   1.494   .     T
C1533  C1628   1.274   .     S
C1534  C1542   1.557   .     S
C1535  C1540   1.506   .     S
C1536  C1544   1.575   .     D
C1537  C1549   1.659   .     T
C1538  C1545   1.378   .     S
C1539  C1543   1.578   .     S
C1539  C1547   1.574   .     S
C1539  C1554   1.570   .     S
C1539  C1541   1.663   .     S
C1540  C1547   1.543   .     S
C1540  C1546   1.464   .     S
C1542  C1548   1.649   .     S
C1545  C1550   1.301   .     T
C1546  C1551   1.268   .     S
C1547  C1572   1.480   .     D
C1548  C1563   1.462   .     D
C1550  C1552   1.486   .     S
C1551  C1552   1.474   .     D
C1553  C1569   1.597   .     S
C1554  C1557   1.557   .     S
C1554  C1559   1.549   .     S
C1554  C1602   1.352   .     S
C1555  C1635   1.532   .     D
C1556  C1571   1.544   .     D
C1556  C1615   1.456   .     D
C1557  C1599   1.544   .     S
C1557  C1617   1.379   .     S
C1558  C1571   1.330   .     S
C1559  C1618   1.573   .     S
C1560  C1590   1.618   .     S
C1560  C1620   1.467   .     S
C1560  C1601   1.569   .     S
C1560  C1569   1.562   .     S
C1561  C1631   1.402   .     S
C1561  C1608   1.549   .     D
C1562  C1618   1.607   .     D
C1562  C1600   1.431   .     S
C1562  C1608   1.590   .     S
C1564  C1582   1.558   .     S
C1564  C1597   1.632   .     S
C1564  C1576   1.540   .     S
C1564  C1624   1.491   .     S
C1566  C1577   1.586   .     T
C1566  C1596   1.545   .     S
C1567  C1579   1.542   .     D
C1567  C1590   1.570   .     S
C1567  C1627   1.419   .     S
C1568  C1584   1.406   .     S
C1568  C1596   1.539   .     S
C1568  C1604   1.446   .     D
C1570  C1613   1.549   .     S
C1570  C1612   1.475   .     S
C1570  C1614   1.397   .     S
C1570  C1603   1.596   .     S
C1571  C1606   1.524   .     S
C1572  C1617   1.264   .     S
C1573  C1578   1.302   .     S
C1573  C1582   1.568   .     S
C1573  C1612   1.416   .     S
C1573  C1614   1.466   .     S
C1574  C1587   1.523   .     S
C1574  C1612   1.417   .     D
C1575  C1631   1.346   .     S
C1575  C1588   1.544   .     T
C1579  C1588   1.544   .     S
C1579  C1586   1.559   .     S
C1580  C1583   1.598   .     S
C1580  C1616   1.536   .     S
C1580  C1623   1.532   .     D
C1581  C1591   1.510   .     S
C1581  C1615   1.588   .     S
C1581  C1605   1.447   .     S
C1581  C1608   1.607   .     S
C1582  C1592   1.572   .     S
C1583  C1601   1.521   .     S
C1583  C1627   1.498   .     S
C1584  C1631   1.475   .     D
C1584  C1603   1.577   .     S
C1585  C1610   1.449   .     S
C1585  C1628   1.508   .     S
C1586  C1603   1.538   .     S
C1586  C1626   1.502   .     D
C1589  C1630   1.598   .     S
C1589  C1609   1.586   .     D
C1589  C1629   1.534   .     S
C1590  C1594   1.495   .     S
C1590  C1600   1.550   .     S
C1591  C1606   1.600   .     D
C1592  C1632   1.635   .     S
C1593  C1610   1.436   .     S
C1593  C1623   1.502   .     D
C1594  C1616   1.476   .     S
C1594  C1636   1.575   .     D
C1595  C1604   1.574   .     S
C1596  C1613   1.543   .     D
C1597  C1614   1.315   .     S
C1597  C1634   1.562   .     D
C1598  C1619   1.575   .     S
C1598  C1607   1.552   .     D
C1599  C1605   1.526   .     S
C1599  C1611   1.434   .     S
C1599  C1633   1.486   .     S
C1600  C1619   1.518   .     S
C1600  C1629   1.529   .     S
C1602  C1607   1.605   .     S
C1602  C1622   1.629   .     D
C1603  C1625   1.499   .     S
C1605  C1618   1.566   .     S
C1605  C1607   1.563   .     S
C1609  C1622   1.629   .     D
C1610  C1627   1.308   .     D
C1615  C1625   1.625   .     S
C1616  C1621   1.442   .     D
C1619  C1626   1.553   .     S
C1619  C1630   1.566   .     S
C1620  C1630   1.353   .     D
C1628  C1632   1.627   .     S
C1629  C1636   1.435   .     D
C1633  C1635   1.321   .     D
C1637  C1641   1.319   .     S
C1637  C1640   1.463   .     D
C1637  C2124   1.574   .     S
C1638  C1659   1.619   .     S
C1638  C1662   1.504   .     S
C1638  C1652   1.519   .     D
C1639  C1679   1.302   .     D
C1639  C1689   1.568   .     D
C1640  C1678   1.508   .     S
C1640  C1694   1.666   .     S
C1641  C1662   1.544   .     S
C1641  C1695   1.578   .     S
C1641  C1710   1.428   .     S
C1642  C1707   1.456   .     S
C1642  C1703   1.397   .     S
C1642  C1711   1.487   .     S
C1642  C1687   1.472   .     S
C1643  C1700   1.472   .     D
C1643  C1687   1.453   .     S
C1643  C1695   1.556   .     S
C1644  C1789   1.611   .     S
C1644  C1719   1.383   .     S
C1644  C1653   1.508   .     D
C1645  C1657   1.523   .     S
C1645  C1674   1.475   .     S
C1646  C1683   1.554   .     D
C1646  C1664   1.505   .     S
C1647  C1694   1.501   .     S
C1647  C2143   1.533   .     S
C1648  C1666   1.517   .     S
C1648  C1726   1.432   .     T
C1649  C1707   1.454   .     S
C1649  C1669   1.503   .     D
C1649  C1668   1.433   .     S
C1650  C1658   1.599   .     S
C1650  C1701   1.494   .     D
C1651  C1679   1.556   .     S
C1651  C1674   1.592   .     S
C1651  C1691   1.495   .     D
C1652  C1655   1.302   .     S
C1653  C1672   1.464   .     D
C1654  C1662   1.320   .     D
C1654  C1655   1.502   .     S
C1654  C2133   1.652   .     S
C1655  C1677   1.449   .     D
C1656  C1748   1.595   .     S
C1656  C1789   1.457   .     S
C1657  C1703   1.450   .     S
C1657  C1668   1.520   .     D
C1658  C1702   1.563   .     S
C1658  C1708   1.432   .     S
C1658  C1692   1.597   .     S
C1660  C2533   1.358   .     S
C1661  C1671   1.543   .     S
C1661  C1684   1.444   .     D
C1663  C1673   1.586   .     D
C1664  C1671   1.459   .     S
C1664  C1707   1.415   .     D
C1665  C1689   1.295   .     S
C1665  C1711   1.516   .     S
C1665  C1685   1.559   .     D
C1666  C1719   1.537   .     D
C1666  C1672   1.476   .     S
C1667  C1696   1.469   .     D
C1667  C1711   1.589   .     S
C1668  C1692   1.540   .     S
C1669  C1670   1.518   .     S
C1669  C1696   1.495   .     S
C1670  C1754   1.432   .     S
C1670  C1702   1.448   .     D
C1671  C1682   1.574   .     S
C1671  C1686   1.570   .     S
C1672  C1696   1.466   .     S
C1673  C1734   1.527   .     S
C1673  C1749   1.377   .     S
C1674  C1698   1.595   .     S
C1674  C1712   1.476   .     S
C1675  C1688   1.454   .     D
C1675  C1698   1.498   .     S
C1675  C1799   1.443   .     S
C1676  C1683   1.521   .     S
C1676  C1699   1.380   .     D
C1676  C1782   1.283   .     S
C1677  C2137   1.477   .     S
C1678  C1690   1.591   .     D
C1678  C1684   1.447   .     S
C1679  C1703   1.522   .     S
C1680  C1682   1.558   .     S
C1680  C1690   1.444   .     S
C1680  C1681   1.557   .     D
C1682  C1699   1.514   .     S
C1682  C1711   1.554   .     S
C1683  C1795   1.537   .     S
C1684  C1695   1.533   .     S
C1685  C1695   1.596   .     S
C1685  C1709   1.495   .     S
C1686  C1776   1.562   .     D
C1688  C1692   1.523   .     D
C1689  C1700   1.429   .     S
C1690  C1767   1.546   .     S
C1691  C1701   1.381   .     S
C1693  C1713   1.471   .     S
C1694  C1767   1.500   .     S
C1694  C1793   1.511   .     S
C1697  C1710   1.295   .     S
C1697  C2087   1.449   .     S
C1698  C1713   1.302   .     S
C1699  C1781   1.566   .     S
C1700  C1703   1.438   .     S
C1701  C1713   1.600   .     S
C1704  C1713   1.541   .     S
C1705  C1708   1.556   .     D
C1705  C1741   1.291   .     S
C1705  C2542   1.506   .     S
C1706  C1710   1.504   .     D
C1708  C1762   1.496   .     S
C1714  C1721   1.415   .     D
C1714  C1854   1.409   .     S
C1714  C1725   1.549   .     S
C1715  C1728   1.540   .     S
C1715  C2611   1.492   .     D
C1715  C2614   1.505   .     S
C1716  C1724   1.560   .     S
C1716  C1748   1.576   .     S
C1716  C1836   1.592   .     S
C1716  C1863   1.501   .     S
C1717  C1867   1.586   .     S
C1717  C1737   1.534   .     S
C1717  C1736   1.620   .     S
C1717  C1733   1.533   .     S
C1718  C1750   1.357   .     S
C1718  C1751   1.299   .     S
C1718  C1725   1.542   .     D
C1719  C1764   1.604   .     S
C1720  C1724   1.366   .     S
C1720  C1751   1.281   .     D
C1721  C1744   1.544   .     S
C1722  C1728   1.463   .     S
C1722  C1734   1.534   .     D
C1722  C1741   1.457   .     S
C1723  C1753   1.531   .     S
C1723  C1742   1.471   .     D
C1723  C1728   1.476   .     S
C1724  C1876   1.634   .     S
C1724  C1750   1.283   .     S
C1725  C1738   1.532   .     S
C1726  C1732   1.432   .     S
C1727  C1730   1.560   .     S
C1727  C1739   1.414   .     D
C1728  C1762   1.430   .     S
C1729  C1737   1.583   .     S
C1729  C1742   1.505   .     D
C1729  C2608   1.551   .     S
C1730  C1744   1.444   .     S
C1730  C1745   1.513   .     D
C1731  C1749   1.321   .     S
C1731  C1760   1.509   .     S
C1731  C1762   1.548   .     D
C1732  C1747   1.508   .     D
C1732  C1764   1.464   .     S
C1733  C1746   1.402   .     D
C1734  C1740   1.473   .     S
C1735  C1740   1.261   .     S
C1735  C1749   1.417   .     S
C1736  C1740   1.582   .     S
C1737  C1753   1.525   .     S
C1737  C1746   1.442   .     S
C1738  C1752   1.510   .     D
C1738  C1747   1.564   .     S
C1739  C1756   1.507   .     S
C1739  C1832   1.367   .     S
C1740  C1761   1.617   .     S
C1741  C2614   1.405   .     S
C1741  C2486   1.541   .     S
C1743  C1747   1.593   .     S
C1743  C1754   1.518   .     S
C1744  C1755   1.467   .     S
C1744  C1823   1.603   .     S
C1745  C1759   1.603   .     D
C1746  C2622   1.485   .     S
C1748  C1811   1.610   .     S
C1748  C1764   1.596   .     S
C1749  C1754   1.472   .     S
C1750  C1835   1.496   .     S
C1750  C1854   1.630   .     S
C1751  C1758   1.635   .     S
C1752  C1759   1.550   .     S
C1752  C1761   1.332   .     S
C1753  C1761   1.536   .     D
C1754  C1765   1.388   .     S
C1755  C1758   1.310   .     D
C1755  C1759   1.425   .     S
C1757  C1833   1.485   .     D
C1757  C1835   1.588   .     S
C1757  C1758   1.574   .     S
C1760  C1765   1.357   .     T
C1763  C1764   1.508   .     S
C1766  C1769   1.349   .     S
C1766  C1772   1.554   .     D
C1766  C1780   1.601   .     S
C1767  C1775   1.617   .     D
C1768  C1788   1.522   .     S
C1769  C1786   1.451   .     D
C1769  C1945   1.508   .     S
C1770  C1775   1.358   .     S
C1770  C1784   1.563   .     S
C1770  C1793   1.413   .     D
C1771  C1794   1.275   .     D
C1771  C1803   1.481   .     S
C1773  C1804   1.298   .     S
C1773  C1779   1.314   .     S
C1774  C1807   1.462   .     S
C1774  C1947   1.492   .     S
C1774  C1791   1.379   .     S
C1774  C1777   1.525   .     S
C1775  C1809   1.316   .     S
C1776  C1805   1.565   .     S
C1776  C1794   1.600   .     S
C1777  C1796   1.461   .     D
C1778  C1789   1.533   .     S
C1778  C1804   1.266   .     S
C1779  C1789   1.577   .     S
C1779  C1782   1.592   .     S
C1779  C1795   1.588   .     S
C1780  C2412   1.305   .     S
C1780  C2171   1.584   .     D
C1781  C1806   1.499   .     D
C1781  C1794   1.675   .     S
C1783  C1808   1.598   .     D
C1783  C1800   1.411   .     S
C1783  C1809   1.516   .     S
C1784  C2176   1.363   .     S
C1784  C2169   1.495   .     D
C1785  C1792   1.268   .     S
C1785  C1800   1.400   .     D
C1785  C2171   1.528   .     S
C1786  C1792   1.517   .     D
C1787  C1807   1.279   .     S
C1787  C1802   1.385   .     D
C1787  C1810   1.542   .     S
C1788  C1797   1.336   .     D
C1788  C1803   1.468   .     S
C1790  C1898   1.261   .     S
C1790  C1804   1.481   .     D
C1790  C1798   1.575   .     S
C1791  C1798   1.502   .     S
C1791  C1805   1.561   .     D
C1792  C1808   1.563   .     S
C1793  C2199   1.483   .     S
C1795  C1798   1.416   .     D
C1796  C1810   1.518   .     S
C1796  C1803   1.503   .     S
C1799  C2555   1.446   .     S
C1799  C2542   1.333   .     S
C1799  C2574   1.554   .     S
C1800  C2176   1.298   .     S
C1801  C1919   1.267   .     T
C1801  C1933   1.593   .     S
C1803  C1808   1.498   .     S
C1805  C1810   1.498   .     S
C1806  C1810   1.493   .     S
C1809  C2201   1.557   .     D
C1812  C1831   1.596   .     S
C1812  C1854   1.550   .     D
C1813  C1853   1.559   .     S
C1813  C1814   1.511   .     S
C1813  C1870   1.597   .     S
C1813  C1846   1.598   .     S
C1814  C1842   1.529   .     T
C1815  C1824   1.546   .     D
C1815  C1860   1.264   .     S
C1815  C1880   1.550   .     S
C1816  C1875   1.354   .     S
C1816  C1885   1.315   .     D
C1817  C1887   1.523   .     S
C1817  C1866   1.483   .     S
C1817  C1881   1.493   .     S
C1817  C1889   1.543   .     S
C1818  C1849   1.269   .     D
C1818  C1877   1.287   .     S
C1818  C1829   1.341   .     S
C1819  C1867   1.488   .     T
C1819  C1832   1.478   .     S
C1820  C1830   1.611   .     S
C1820  C1884   1.570   .     D
C1821  C1858   1.497   .     S
C1821  C1848   1.496   .     D
C1821  C1838   1.461   .     S
C1822  C1872   1.449   .     S
C1822  C1874   1.493   .     S
C1822  C1875   1.333   .     S
C1822  C1857   1.657   .     S
C1823  C1831   1.589   .     S
C1823  C1846   1.440   .     S
C1824  C1864   1.510   .     S
C1824  C1865   1.293   .     S
C1825  C1846   1.496   .     S
C1826  C1872   1.332   .     S
C1826  C1837   1.521   .     D
C1826  C1875   1.336   .     S
C1827  C1872   1.530   .     D
C1827  C1844   1.459   .     S
C1827  C1887   1.395   .     S
C1828  C1877   1.315   .     D
C1828  C1851   1.328   .     S
C1829  C1851   1.389   .     S
C1829  C1859   1.283   .     S
C1829  C1839   1.381   .     S
C1830  C1843   1.613   .     S
C1830  C1840   1.609   .     S
C1830  C1881   1.353   .     S
C1831  C1870   1.590   .     S
C1831  C1835   1.495   .     S
C1832  C1882   1.589   .     S
C1832  C2607   1.588   .     S
C1833  C1846   1.552   .     S
C1834  C1860   1.630   .     S
C1835  C1883   1.539   .     S
C1836  C1850   1.536   .     D
C1837  C1843   1.630   .     D
C1838  C1887   1.587   .     D
C1838  C1845   1.573   .     S
C1839  C1886   1.422   .     D
C1839  C2811   1.405   .     S
C1840  C1857   1.493   .     S
C1840  C1866   1.500   .     D
C1841  C1861   1.586   .     S
C1841  C1870   1.498   .     S
C1841  C1889   1.571   .     S
C1841  C1890   1.564   .     S
C1842  C1889   1.588   .     S
C1843  C1873   1.298   .     S
C1845  C1856   1.581   .     S
C1847  C1858   1.535   .     S
C1847  C1878   1.436   .     D
C1849  C1875   1.305   .     S
C1849  C1885   1.417   .     S
C1850  C1891   1.522   .     S
C1850  C1970   1.372   .     S
C1851  C2772   1.540   .     D
C1852  C1877   1.372   .     S
C1852  C1885   1.353   .     S
C1852  C1862   1.488   .     S
C1853  C1881   1.510   .     S
C1855  C1871   1.536   .     S
C1855  C1856   1.543   .     S
C1855  C1861   1.556   .     D
C1856  C1878   1.512   .     S
C1856  C1889   1.604   .     S
C1858  C1994   1.431   .     S
C1858  C1865   1.503   .     S
C1859  C1862   1.399   .     S
C1859  C2821   1.579   .     D
C1862  C2792   1.659   .     D
C1865  C1973   1.444   .     D
C1868  C2851   1.556   .     S
C1869  C1873   1.590   .     T
C1869  C1884   1.559   .     S
C1870  C1879   1.422   .     S
C1871  C1993   1.596   .     S
C1871  C1964   1.496   .     D
C1876  C1883   1.602   .     D
C1878  C1980   1.538   .     S
C1879  C1881   1.568   .     S
C1882  C2858   1.490   .     D
C1883  C1890   1.457   .     S
C1884  C1888   1.603   .     S
C1886  C2829   1.375   .     S
C1891  C1949   1.521   .     D
C1891  C1989   1.656   .     S
C1892  C1902   1.604   .     S
C1892  C1904   1.560   .     S
C1892  C1935   1.553   .     S
C1892  C2400   1.586   .     S
C1893  C1905   1.649   .     S
C1893  C1941   1.538   .     S
C1894  C1929   1.623   .     S
C1895  C1913   1.596   .     S
C1895  C1918   1.555   .     D
C1895  C1933   1.528   .     S
C1896  C1897   1.551   .     D
C1896  C1943   1.493   .     S
C1897  C1931   1.596   .     D
C1898  C1901   1.417   .     S
C1898  C1949   1.279   .     S
C1898  C1952   1.603   .     S
C1899  C1958   1.613   .     S
C1899  C1902   1.635   .     D
C1899  C2363   1.579   .     S
C1900  C1905   1.566   .     D
C1900  C1910   1.583   .     S
C1901  C1925   1.534   .     S
C1901  C1989   1.425   .     D
C1903  C1937   1.345   .     S
C1903  C1951   1.563   .     S
C1903  C1910   1.541   .     D
C1904  C1920   1.465   .     S
C1904  C1960   1.523   .     D
C1906  C1956   1.461   .     S
C1906  C1961   1.637   .     D
C1906  C1954   1.542   .     S
C1907  C1929   1.557   .     S
C1907  C2348   1.545   .     S
C1908  C1921   1.360   .     D
C1908  C1932   1.547   .     D
C1909  C1946   1.346   .     S
C1909  C1936   1.626   .     S
C1910  C1939   1.494   .     S
C1911  C1924   1.565   .     S
C1911  C1971   1.537   .     S
C1911  C1932   1.563   .     S
C1911  C1944   1.320   .     S
C1912  C1956   1.272   .     S
C1912  C1944   1.531   .     D
C1912  C1926   1.331   .     S
C1913  C1945   1.571   .     D
C1913  C1915   1.581   .     S
C1914  C1920   1.424   .     S
C1914  C1942   1.556   .     S
C1914  C2407   1.646   .     D
C1915  C2364   1.441   .     D
C1916  C1979   1.386   .     S
C1916  C1984   1.486   .     D
C1917  C1954   1.357   .     D
C1918  C1919   1.503   .     S
C1918  C1943   1.540   .     S
C1920  C1957   1.541   .     D
C1921  C1928   1.646   .     S
C1921  C1956   1.542   .     S
C1922  C1936   1.522   .     S
C1923  C1961   1.625   .     S
C1923  C1938   1.347   .     D
C1923  C1943   1.594   .     S
C1924  C1930   1.615   .     S
C1925  C1975   1.462   .     D
C1925  C1959   1.516   .     S
C1926  C1927   1.567   .     S
C1926  C1948   1.435   .     D
C1927  C1953   1.510   .     D
C1927  C2002   1.573   .     S
C1928  C1934   1.551   .     T
C1929  C1940   1.431   .     S
C1929  C1958   1.571   .     S
C1930  C1948   1.280   .     D
C1930  C1956   1.445   .     S
C1931  C1959   1.564   .     D
C1932  C1946   1.525   .     S
C1933  C1942   1.418   .     D
C1934  C1961   1.529   .     S
C1935  C1940   1.581   .     D
C1935  C2363   1.623   .     S
C1936  C1955   1.439   .     D
C1937  C1939   1.524   .     S
C1938  C1957   1.407   .     D
C1941  C1958   1.568   .     D
C1941  C2353   1.537   .     S
C1942  C2412   1.425   .     S
C1943  C1950   1.471   .     S
C1950  C1954   1.569   .     S
C1950  C1962   1.600   .     D
C1951  C1955   1.527   .     D
C1953  C1987   1.458   .     S
C1953  C1959   1.582   .     S
C1963  C1969   1.553   .     S
C1963  C1966   1.341   .     S
C1963  C1979   1.575   .     S
C1964  C1972   1.597   .     S
C1965  C1988   1.332   .     D
C1966  C1985   1.431   .     D
C1967  C1983   1.451   .     T
C1967  C1972   1.376   .     S
C1968  C1982   1.618   .     S
C1968  C2000   1.467   .     S
C1968  C1993   1.569   .     S
C1968  C1972   1.562   .     S
C1969  C1990   1.521   .     S
C1970  C1976   1.529   .     D
C1971  C1979   1.487   .     S
C1972  C2006   1.390   .     S
C1973  C1988   1.546   .     S
C1973  C1993   1.620   .     S
C1974  C1995   1.489   .     T
C1975  C1987   1.285   .     S
C1976  C2008   1.597   .     S
C1976  C2001   1.504   .     S
C1977  C1980   1.598   .     D
C1977  C1998   1.536   .     S
C1978  C1996   1.589   .     T
C1978  C1989   1.479   .     S
C1980  C1993   1.521   .     S
C1981  C2005   1.598   .     S
C1981  C1997   1.586   .     S
C1981  C2004   1.534   .     S
C1981  C2006   1.307   .     S
C1982  C1986   1.495   .     D
C1983  C1992   1.474   .     S
C1984  C1992   1.406   .     S
C1984  C1997   1.506   .     S
C1985  C1992   1.606   .     S
C1986  C1998   1.476   .     S
C1986  C2009   1.575   .     S
C1987  C2007   1.545   .     S
C1987  C2008   1.501   .     S
C1988  C2000   1.551   .     S
C1990  C1999   1.575   .     T
C1991  C2003   1.447   .     S
C1992  C2005   1.567   .     S
C1994  C2003   1.333   .     T
C1997  C2002   1.629   .     D
C1998  C2001   1.442   .     D
C1999  C2005   1.566   .     S
C2000  C2005   1.353   .     S
C2002  C2007   1.429   .     S
C2004  C2007   1.323   .     S
C2004  C2009   1.435   .     D
C2006  C2008   1.601   .     S
C2008  C2009   1.271   .     S
C2010  C2040   1.326   .     S
C2010  C2051   1.467   .     S
C2010  C2016   1.557   .     D
C2011  C2052   1.264   .     S
C2011  C2219   1.583   .     D
C2011  C2048   1.327   .     S
C2012  C2145   1.454   .     S
C2012  C2490   1.363   .     D
C2012  C2526   1.480   .     S
C2013  C2049   1.304   .     S
C2013  C2027   1.485   .     S
C2013  C2034   1.423   .     S
C2013  C2022   1.568   .     S
C2014  C2155   1.611   .     S
C2014  C2062   1.383   .     S
C2015  C2023   1.536   .     S
C2015  C2026   1.360   .     S
C2015  C2245   1.596   .     S
C2015  C2033   1.592   .     S
C2016  C2033   1.593   .     D
C2017  C2037   1.317   .     S
C2017  C2052   1.533   .     S
C2017  C2021   1.448   .     S
C2018  C2047   1.534   .     S
C2018  C2038   1.520   .     S
C2018  C2045   1.447   .     S
C2018  C2048   1.318   .     S
C2019  C2024   1.453   .     S
C2019  C2045   1.366   .     S
C2019  C2027   1.466   .     S
C2019  C2048   1.370   .     S
C2020  C2029   1.517   .     S
C2020  C2071   1.432   .     S
C2020  C2033   1.523   .     S
C2020  C2045   1.462   .     S
C2021  C2041   1.472   .     S
C2021  C2042   1.472   .     D
C2022  C2035   1.546   .     S
C2022  C2028   1.307   .     S
C2022  C2039   1.305   .     S
C2023  C2113   1.595   .     S
C2023  C2155   1.457   .     D
C2024  C2095   1.374   .     T
C2025  C2054   1.432   .     D
C2025  C2046   1.597   .     D
C2026  C2157   1.397   .     S
C2026  C2308   1.455   .     S
C2026  C2040   1.592   .     S
C2027  C2032   1.586   .     S
C2028  C2044   1.622   .     D
C2028  C2925   1.296   .     S
C2029  C2062   1.537   .     S
C2030  C2046   1.540   .     S
C2031  C2131   1.432   .     S
C2032  C2093   1.527   .     D
C2032  C2116   1.377   .     S
C2034  C2052   1.404   .     S
C2034  C2048   1.266   .     S
C2034  C2055   1.625   .     S
C2035  C2907   1.601   .     S
C2036  C2049   1.363   .     T
C2036  C2052   1.593   .     S
C2037  C2050   1.535   .     S
C2037  C2043   1.563   .     S
C2037  C2221   1.501   .     S
C2039  C2050   1.553   .     S
C2039  C2043   1.602   .     S
C2039  C2932   1.561   .     S
C2040  C2275   1.634   .     S
C2041  C2218   1.505   .     D
C2042  C2055   1.514   .     S
C2043  C2919   1.395   .     D
C2044  C2046   1.523   .     S
C2047  C2205   1.517   .     D
C2047  C2222   1.530   .     S
C2050  C2055   1.491   .     D
C2051  C2222   1.268   .     S
C2053  C2054   1.556   .     S
C2053  C2105   1.291   .     S
C2053  C2938   1.506   .     D
C2054  C2141   1.496   .     S
C2056  C2130   1.633   .     S
C2056  C2526   1.454   .     D
C2057  C2073   1.540   .     S
C2057  C2998   1.492   .     D
C2057  C3003   1.505   .     S
C2058  C2065   1.492   .     D
C2058  C2107   1.510   .     D
C2059  C2060   1.488   .     S
C2059  C2102   1.470   .     S
C2059  C2117   1.554   .     D
C2060  C2084   1.567   .     S
C2060  C2092   1.381   .     D
C2061  C2136   1.525   .     S
C2061  C2063   1.522   .     S
C2061  C2130   1.314   .     S
C2062  C2065   1.627   .     S
C2062  C2144   1.604   .     S
C2063  C2083   1.426   .     T
C2064  C2073   1.463   .     S
C2064  C2093   1.534   .     D
C2064  C2105   1.457   .     S
C2066  C2126   1.520   .     S
C2066  C2147   1.545   .     S
C2067  C2073   1.476   .     S
C2068  C2138   1.455   .     D
C2068  C2114   1.522   .     S
C2068  C2148   1.571   .     S
C2069  C2114   1.605   .     S
C2069  C2126   1.632   .     S
C2069  C2135   1.562   .     S
C2069  C2103   1.481   .     S
C2070  C2077   1.545   .     S
C2070  C2181   1.464   .     T
C2071  C2090   1.432   .     D
C2072  C2088   1.529   .     S
C2072  C2094   1.443   .     S
C2073  C2141   1.430   .     S
C2074  C2125   1.528   .     T
C2075  C2078   1.523   .     S
C2075  C2136   1.470   .     S
C2075  C2145   1.454   .     D
C2076  C2102   1.424   .     S
C2076  C2121   1.504   .     D
C2076  C2094   1.604   .     S
C2077  C2098   1.273   .     S
C2077  C2119   1.534   .     S
C2077  C2091   1.548   .     S
C2078  C2121   1.479   .     D
C2078  C2137   1.519   .     S
C2079  C2129   1.588   .     D
C2080  C2123   1.486   .     D
C2080  C2132   1.604   .     S
C2080  C2986   1.260   .     S
C2081  C2089   1.539   .     D
C2081  C2109   1.461   .     S
C2082  C2110   1.439   .     D
C2082  C2117   1.533   .     S
C2082  C2148   1.482   .     S
C2083  C2146   1.515   .     S
C2084  C2152   1.603   .     S
C2084  C2128   1.618   .     S
C2084  C2148   1.538   .     S
C2085  C2116   1.321   .     S
C2085  C2140   1.509   .     S
C2085  C2141   1.548   .     S
C2086  C2087   1.608   .     S
C2086  C2128   1.449   .     S
C2087  C2133   1.558   .     S
C2087  C2137   1.476   .     S
C2088  C2103   1.532   .     D
C2088  C2097   1.342   .     S
C2089  C2111   1.577   .     D
C2090  C2112   1.508   .     S
C2090  C2144   1.464   .     S
C2091  C2128   1.484   .     D
C2092  C2133   1.580   .     S
C2094  C2132   1.523   .     S
C2094  C2149   1.416   .     S
C2095  C2116   1.417   .     S
C2096  C2132   1.540   .     S
C2096  C2994   1.547   .     D
C2097  C2123   1.562   .     S
C2097  C2149   1.439   .     S
C2097  C2153   1.513   .     S
C2098  C2108   1.526   .     S
C2098  C2174   1.423   .     S
C2098  C2134   1.634   .     S
C2099  C2147   1.460   .     S
C2099  C2151   1.571   .     S
C2100  C2112   1.564   .     S
C2101  C2118   1.544   .     D
C2101  C2109   1.463   .     S
C2101  C2142   1.560   .     S
C2102  C2138   1.468   .     D
C2103  C2140   1.611   .     S
C2104  C2106   1.489   .     D
C2104  C2118   1.513   .     S
C2104  C2110   1.518   .     S
C2105  C3003   1.405   .     S
C2105  C2907   1.541   .     S
C2106  C2134   1.609   .     S
C2106  C2148   1.447   .     S
C2107  C2112   1.593   .     S
C2107  C2131   1.518   .     S
C2108  C2185   1.586   .     D
C2109  C2126   1.591   .     S
C2109  C2112   1.540   .     S
C2110  C2126   1.615   .     S
C2111  C2165   1.469   .     D
C2113  C2175   1.610   .     D
C2113  C2144   1.596   .     S
C2115  C2119   1.321   .     S
C2115  C2152   1.447   .     S
C2115  C2177   1.394   .     S
C2115  C2134   1.420   .     S
C2116  C2131   1.472   .     S
C2117  C2135   1.487   .     S
C2118  C2184   1.592   .     S
C2119  C2199   1.531   .     S
C2119  C2127   1.498   .     S
C2120  C2136   1.470   .     S
C2120  C2146   1.480   .     D
C2122  C2150   1.626   .     S
C2123  C2129   1.576   .     S
C2124  C2133   1.561   .     S
C2124  C2143   1.542   .     D
C2125  C2149   1.545   .     S
C2127  C2143   1.521   .     S
C2129  C2954   1.557   .     S
C2130  C2145   1.565   .     S
C2130  C2888   1.622   .     S
C2131  C2147   1.388   .     S
C2132  C2150   1.578   .     S
C2134  C2173   1.534   .     S
C2135  C2149   1.566   .     S
C2136  C2150   1.611   .     S
C2137  C2146   1.528   .     S
C2139  C2150   1.577   .     S
C2139  C2888   1.561   .     D
C2139  C3032   1.524   .     S
C2140  C2147   1.357   .     S
C2140  C2153   1.309   .     S
C2141  C2151   1.569   .     S
C2142  C2188   1.452   .     S
C2142  C2144   1.508   .     S
C2151  C2153   1.290   .     D
C2154  C2155   1.533   .     S
C2156  C2284   1.261   .     D
C2156  C2157   1.575   .     D
C2158  C2390   1.564   .     S
C2158  C2180   1.501   .     S
C2158  C2178   1.532   .     S
C2158  C2175   1.505   .     S
C2159  C2186   1.556   .     S
C2159  C2178   1.510   .     D
C2159  C2395   1.370   .     S
C2160  C2188   1.601   .     S
C2161  C2198   1.305   .     D
C2161  C2347   1.583   .     S
C2161  C2191   1.324   .     S
C2162  C2184   1.427   .     D
C2162  C2192   1.427   .     S
C2163  C2172   1.504   .     S
C2163  C2179   1.547   .     S
C2163  C2170   1.463   .     S
C2163  C2194   1.279   .     S
C2164  C2198   1.495   .     S
C2164  C2168   1.597   .     S
C2164  C2398   1.569   .     S
C2164  C2182   1.309   .     S
C2165  C2180   1.502   .     S
C2165  C2195   1.546   .     S
C2166  C2190   1.424   .     S
C2166  C2191   1.348   .     S
C2167  C2171   1.523   .     S
C2167  C2172   1.451   .     D
C2167  C2191   1.657   .     S
C2168  C2186   1.488   .     D
C2168  C2187   1.566   .     S
C2169  C2181   1.527   .     S
C2169  C2194   1.463   .     S
C2170  C2174   1.394   .     D
C2170  C2185   1.641   .     S
C2172  C2176   1.492   .     S
C2173  C2184   1.555   .     S
C2173  C2197   1.533   .     D
C2174  C2199   1.486   .     S
C2175  C2188   1.469   .     S
C2176  C2201   1.491   .     S
C2177  C2189   1.469   .     D
C2178  C2183   1.565   .     S
C2179  C2198   1.542   .     S
C2179  C2191   1.324   .     S
C2179  C2202   1.514   .     S
C2180  C2192   1.476   .     S
C2180  C2188   1.525   .     S
C2182  C2195   1.517   .     S
C2183  C2200   1.461   .     T
C2185  C2195   1.568   .     S
C2186  C2193   1.574   .     S
C2187  C2196   1.574   .     S
C2187  C2202   1.459   .     S
C2187  C2192   1.538   .     S
C2189  C2197   1.514   .     D
C2190  C2355   1.509   .     T
C2192  C2200   1.326   .     S
C2193  C2196   1.335   .     T
C2195  C2202   1.422   .     S
C2199  C2201   1.529   .     S
C2203  C2215   1.602   .     D
C2203  C2210   1.483   .     S
C2204  C2217   1.555   .     S
C2204  C3239   1.489   .     S
C2204  C3247   1.534   .     D
C2206  C2234   1.604   .     S
C2206  C2236   1.440   .     S
C2206  C2230   1.287   .     S
C2207  C2215   1.471   .     S
C2207  C2257   1.556   .     S
C2207  C2258   1.461   .     D
C2208  C2255   1.448   .     D
C2208  C2209   1.595   .     D
C2209  C2226   1.486   .     S
C2209  C2281   1.288   .     S
C2210  C2247   1.483   .     S
C2211  C2217   1.486   .     S
C2211  C2250   1.656   .     S
C2211  C2231   1.567   .     D
C2212  C2262   1.514   .     S
C2212  C2217   1.529   .     S
C2212  C2228   1.478   .     S
C2212  C2243   1.293   .     S
C2213  C2276   1.564   .     S
C2213  C2252   1.538   .     S
C2214  C2252   1.574   .     D
C2214  C2259   1.502   .     S
C2214  C2238   1.476   .     S
C2215  C2237   1.310   .     S
C2216  C2221   1.605   .     S
C2216  C2253   1.267   .     T
C2217  C2273   1.418   .     S
C2218  C2233   1.417   .     S
C2218  C2220   1.586   .     S
C2219  C2233   1.553   .     D
C2220  C2223   1.541   .     T
C2221  C2269   1.607   .     S
C2221  C2936   1.590   .     S
C2222  C2233   1.572   .     S
C2222  C2275   1.512   .     S
C2223  C2270   1.421   .     S
C2224  C2229   1.656   .     S
C2224  C2258   1.567   .     S
C2224  C2246   1.263   .     S
C2224  C2252   1.558   .     S
C2225  C2255   1.533   .     S
C2225  C2276   1.587   .     S
C2225  C2278   1.583   .     S
C2225  C2248   1.520   .     S
C2226  C2279   1.438   .     S
C2226  C2276   1.612   .     S
C2227  C2271   1.285   .     D
C2227  C2273   1.331   .     D
C2229  C2251   1.600   .     S
C2229  C2242   1.621   .     S
C2230  C2250   1.474   .     S
C2230  C3234   1.560   .     D
C2231  C2240   1.540   .     S
C2232  C2237   1.475   .     D
C2232  C2240   1.351   .     S
C2234  C2240   1.500   .     S
C2235  C2264   1.574   .     S
C2235  C2297   1.269   .     D
C2236  C2262   1.473   .     S
C2236  C2250   1.457   .     S
C2237  C2261   1.493   .     S
C2238  C2261   1.569   .     S
C2238  C2271   1.450   .     D
C2239  C2242   1.497   .     S
C2239  C2241   1.601   .     S
C2239  C2256   1.481   .     S
C2239  C2248   1.511   .     S
C2240  C2272   1.387   .     S
C2241  C2280   1.631   .     S
C2241  C2294   1.341   .     D
C2242  C2264   1.598   .     S
C2242  C2276   1.613   .     S
C2243  C3239   1.592   .     D
C2244  C2251   1.553   .     S
C2244  C2306   1.536   .     S
C2245  C2281   1.414   .     S
C2246  C2259   1.457   .     S
C2247  C2263   1.570   .     S
C2247  Cu3311  2.122   .     S
C2248  C2259   1.598   .     D
C2249  C2268   1.506   .     D
C2249  Cu3311  1.607   .     S
C2250  C3263   1.471   .     S
C2251  C2289   1.355   .     D
C2253  C3205   1.573   .     S
C2254  C2264   1.314   .     D
C2254  C2279   1.565   .     S
C2254  C2301   1.509   .     S
C2255  C2265   1.263   .     S
C2256  C2305   1.624   .     D
C2258  C2267   1.526   .     S
C2260  C2324   1.556   .     D
C2260  C2274   1.660   .     S
C2261  C2268   1.604   .     S
C2261  C2272   1.297   .     S
C2262  C2272   1.550   .     D
C2263  C2267   1.384   .     D
C2263  C2268   1.453   .     S
C2265  C2277   1.579   .     T
C2266  C2267   1.574   .     S
C2268  Cu3311  2.075   .     S
C2270  C2278   1.338   .     S
C2274  C2279   1.358   .     S
C2274  C2308   1.566   .     S
C2274  C2281   1.475   .     S
C2275  C2278   1.626   .     S
C2275  C2281   1.625   .     S
C2278  C2280   1.594   .     S
C2279  C2280   1.541   .     S
C2280  C2319   1.565   .     S
C2282  C2283   1.522   .     S
C2282  C2340   1.372   .     D
C2283  C2313   1.521   .     S
C2283  C2377   1.656   .     D
C2284  C2313   1.279   .     S
C2284  C2317   1.603   .     S
C2285  C3226   1.658   .     S
C2285  C3191   1.500   .     D
C2285  C3205   1.426   .     S
C2286  C2312   1.314   .     S
C2286  C2321   1.302   .     S
C2287  C2315   1.404   .     S
C2287  C2295   1.530   .     S
C2287  C2302   1.532   .     S
C2287  C2292   1.559   .     S
C2288  C2321   1.360   .     S
C2288  C2304   1.443   .     S
C2289  C2316   1.425   .     S
C2289  C2305   1.596   .     S
C2290  C2293   1.470   .     S
C2290  C2295   1.483   .     S
C2290  C2310   1.564   .     S
C2290  C2312   1.529   .     S
C2291  C2301   1.565   .     S
C2291  C2317   1.355   .     T
C2292  C2306   1.421   .     S
C2292  C2297   1.497   .     S
C2293  C2360   1.386   .     S
C2293  C2373   1.486   .     D
C2294  C2296   1.592   .     D
C2295  C2300   1.504   .     S
C2296  C2320   1.610   .     S
C2296  C2305   1.365   .     S
C2297  C2309   1.549   .     S
C2298  C2311   1.668   .     T
C2299  C2318   1.510   .     D
C2299  C2405   1.573   .     S
C2300  C2391   1.675   .     S
C2300  C2322   1.572   .     D
C2301  C2309   1.548   .     S
C2301  C2314   1.268   .     S
C2302  C2312   1.314   .     D
C2302  C2321   1.303   .     S
C2303  C2315   1.499   .     S
C2303  C2321   1.550   .     S
C2303  C2307   1.549   .     S
C2304  C2307   1.564   .     D
C2306  C2307   1.604   .     S
C2306  C2316   1.492   .     S
C2308  C2313   1.557   .     S
C2309  C2311   1.604   .     S
C2309  C2320   1.579   .     S
C2313  C2324   1.649   .     S
C2314  C2325   1.409   .     S
C2316  C2323   1.439   .     D
C2318  C2375   1.458   .     D
C2319  C2325   1.582   .     T
C2320  C2323   1.525   .     D
C2324  C2340   1.462   .     S
C2326  C2339   1.553   .     S
C2326  C2360   1.575   .     S
C2327  C2372   1.366   .     S
C2327  C2412   1.641   .     D
C2328  C2394   1.474   .     S
C2328  C2399   1.472   .     S
C2328  C2339   1.364   .     S
C2329  C2354   1.559   .     S
C2329  C2351   1.524   .     T
C2330  C2331   1.440   .     S
C2330  C2379   1.504   .     D
C2330  C2374   1.481   .     S
C2331  C2365   1.587   .     S
C2331  C2423   1.278   .     S
C2331  C2372   1.383   .     S
C2332  C2336   1.596   .     S
C2332  C2346   1.544   .     D
C2332  C2399   1.456   .     S
C2333  C2364   1.512   .     S
C2334  C2346   1.330   .     D
C2334  C2386   1.281   .     S
C2334  C2409   1.425   .     S
C2335  C2402   1.573   .     S
C2335  C2418   1.577   .     S
C2336  C2394   1.554   .     S
C2337  C2414   1.402   .     S
C2337  C2419   1.498   .     S
C2337  C2389   1.549   .     S
C2337  C2410   1.533   .     S
C2338  C2402   1.607   .     S
C2338  C2380   1.431   .     S
C2338  C2389   1.590   .     S
C2338  C2408   1.515   .     S
C2339  C2406   1.570   .     S
C2339  C2378   1.521   .     S
C2340  C2357   1.529   .     S
C2341  C2349   1.395   .     D
C2341  C2390   1.496   .     D
C2342  C2353   1.586   .     D
C2342  C2356   1.618   .     S
C2342  C2376   1.545   .     S
C2343  C2370   1.606   .     T
C2343  C2360   1.487   .     S
C2344  C2361   1.406   .     S
C2344  C2376   1.539   .     D
C2344  C2384   1.446   .     S
C2345  C2354   1.500   .     S
C2345  C2374   1.599   .     S
C2345  C2401   1.538   .     S
C2347  C2396   1.318   .     S
C2347  C2374   1.487   .     S
C2347  C2398   1.554   .     S
C2348  C2363   1.523   .     S
C2348  C2393   1.417   .     D
C2349  C2401   1.432   .     S
C2349  C2395   1.362   .     S
C2350  C2414   1.346   .     S
C2350  C2367   1.535   .     S
C2351  C2395   1.547   .     S
C2352  C2371   1.560   .     S
C2354  C2392   1.450   .     D
C2355  C2374   1.628   .     S
C2356  C2386   1.615   .     D
C2357  C2421   1.597   .     S
C2358  C2369   1.510   .     S
C2358  C2399   1.588   .     S
C2358  C2385   1.447   .     S
C2358  C2389   1.607   .     S
C2359  C2390   1.589   .     S
C2359  C2395   1.393   .     S
C2359  C2377   1.479   .     D
C2361  C2414   1.475   .     S
C2361  C2383   1.577   .     D
C2362  C2387   1.574   .     D
C2362  C2419   1.494   .     S
C2362  C2392   1.552   .     S
C2363  C2371   1.524   .     S
C2364  C2417   1.522   .     S
C2365  C2403   1.621   .     S
C2365  C2419   1.622   .     D
C2366  C2391   1.586   .     S
C2366  C2413   1.534   .     S
C2366  C2415   1.307   .     D
C2367  C2403   1.559   .     S
C2367  C2368   1.617   .     S
C2367  C2379   1.656   .     S
C2369  C2381   1.604   .     T
C2370  C2388   1.408   .     S
C2371  C2403   1.512   .     S
C2371  C2414   1.545   .     S
C2372  C2407   1.548   .     S
C2372  C2417   1.569   .     S
C2373  C2391   1.506   .     S
C2375  C2418   1.545   .     S
C2375  C2421   1.501   .     S
C2376  C2397   1.543   .     S
C2378  C2404   1.575   .     D
C2378  C2388   1.552   .     S
C2379  C2410   1.394   .     S
C2380  C2404   1.518   .     D
C2380  C2413   1.529   .     S
C2382  C2388   1.605   .     S
C2382  C2405   1.629   .     S
C2383  C2411   1.499   .     S
C2385  C2402   1.566   .     S
C2385  C2388   1.563   .     S
C2387  C2402   1.631   .     S
C2391  C2405   1.629   .     S
C2392  C2408   1.382   .     S
C2396  C2417   1.403   .     D
C2398  C2401   1.583   .     S
C2399  C2411   1.625   .     S
C2400  C2403   1.496   .     S
C2400  C2407   1.406   .     S
C2400  C2416   1.647   .     S
C2401  C2420   1.535   .     S
C2405  C2418   1.429   .     S
C2406  C2411   1.626   .     S
C2408  C2410   1.626   .     D
C2409  C2411   1.536   .     S
C2413  C2418   1.323   .     S
C2413  C2422   1.435   .     S
C2415  C2421   1.601   .     S
C2421  C2422   1.271   .     S
C2424  C2675   1.484   .     D
C2424  C2432   1.442   .     S
C2424  C2428   1.379   .     S
C2425  C2462   1.375   .     S
C2425  C2432   1.422   .     S
C2425  C2445   1.551   .     S
C2425  C2464   1.456   .     S
C2426  C2429   1.589   .     S
C2426  C2471   1.540   .     S
C2426  C2868   1.517   .     S
C2426  C2877   1.501   .     S
C2427  C2438   1.332   .     D
C2427  C2431   1.566   .     S
C2427  C2464   1.471   .     S
C2428  C2457   1.579   .     S
C2428  C2684   1.411   .     D
C2429  C2449   1.508   .     S
C2429  C2465   1.666   .     D
C2430  C2456   1.326   .     S
C2430  C2468   1.467   .     S
C2430  C2436   1.557   .     S
C2430  C2438   1.488   .     S
C2431  C2462   1.418   .     S
C2432  C2448   1.591   .     S
C2432  C2466   1.595   .     S
C2433  C2527   1.611   .     S
C2434  C2439   1.536   .     S
C2434  C2440   1.360   .     S
C2434  C2677   1.596   .     S
C2434  C2447   1.592   .     S
C2435  C2872   1.529   .     S
C2435  C2442   1.541   .     S
C2435  C2445   1.575   .     S
C2436  C2454   1.554   .     S
C2436  C2443   1.505   .     S
C2436  C2447   1.593   .     S
C2437  C2463   1.534   .     S
C2437  C2453   1.520   .     D
C2438  C2458   1.266   .     S
C2439  C2473   1.595   .     S
C2439  C2527   1.457   .     S
C2440  C2456   1.592   .     S
C2441  C2444   1.543   .     S
C2441  C2455   1.444   .     D
C2441  C2464   1.583   .     S
C2442  C3169   1.415   .     S
C2442  C2874   1.357   .     D
C2443  C2444   1.459   .     S
C2443  C2453   1.514   .     S
C2444  C2451   1.574   .     S
C2444  C2458   1.570   .     S
C2445  C2459   1.319   .     S
C2445  C2471   1.543   .     S
C2446  C2454   1.521   .     D
C2446  C2467   1.380   .     S
C2446  C2511   1.283   .     S
C2448  C2459   1.497   .     S
C2449  C2461   1.591   .     S
C2449  C2470   1.687   .     S
C2449  C2455   1.447   .     S
C2450  C2451   1.558   .     D
C2450  C2461   1.444   .     D
C2451  C2467   1.514   .     S
C2452  C2459   1.630   .     S
C2452  C2877   1.621   .     S
C2453  C2469   1.492   .     S
C2454  C2536   1.537   .     S
C2455  C2459   1.573   .     S
C2456  C2704   1.634   .     D
C2457  C2466   1.572   .     D
C2457  C2638   1.505   .     S
C2458  C2489   1.562   .     D
C2460  C2467   1.392   .     S
C2460  C2523   1.302   .     D
C2461  C2474   1.546   .     S
C2462  C2652   1.523   .     S
C2462  C2675   1.552   .     S
C2463  C2625   1.517   .     D
C2463  C2651   1.530   .     S
C2464  C2469   1.664   .     S
C2465  C2474   1.500   .     S
C2465  C2532   1.511   .     S
C2466  C2469   1.552   .     S
C2467  C2510   1.566   .     S
C2468  C2651   1.268   .     S
C2468  C2469   1.563   .     S
C2470  C2471   1.603   .     D
C2472  C2473   1.576   .     D
C2472  C2728   1.592   .     S
C2472  C2745   1.501   .     S
C2473  C2595   1.610   .     S
C2474  C2488   1.617   .     S
C2474  C2552   1.535   .     S
C2475  C2508   1.546   .     S
C2475  C2494   1.270   .     D
C2475  C2529   1.361   .     S
C2476  C2477   1.495   .     D
C2476  C2528   1.533   .     S
C2476  C2541   1.599   .     S
C2478  C2488   1.358   .     D
C2478  C2532   1.413   .     D
C2479  C2480   1.291   .     S
C2479  C2502   1.386   .     S
C2479  C2533   1.590   .     S
C2480  C2507   1.359   .     S
C2480  C2568   1.543   .     S
C2480  C2490   1.545   .     S
C2481  C2508   1.559   .     D
C2481  C2549   1.449   .     D
C2482  C2519   1.540   .     D
C2482  C2535   1.275   .     D
C2483  C2563   1.366   .     S
C2483  C2570   1.539   .     D
C2483  C2558   1.490   .     S
C2484  C2549   1.536   .     S
C2484  C2530   1.416   .     D
C2484  C2556   1.580   .     S
C2485  C2554   1.298   .     S
C2485  C2509   1.461   .     D
C2485  C2498   1.314   .     S
C2486  C2581   1.544   .     S
C2486  C2495   1.629   .     D
C2487  C2501   1.549   .     S
C2487  C2522   1.402   .     S
C2487  C2560   1.515   .     S
C2487  C2519   1.434   .     S
C2488  C2564   1.316   .     S
C2489  C2535   1.600   .     S
C2490  C3021   1.423   .     S
C2491  C2500   1.522   .     S
C2491  C2543   1.466   .     D
C2491  C2509   1.602   .     S
C2492  C2543   1.507   .     S
C2492  C2515   1.608   .     D
C2492  C2517   1.521   .     S
C2493  C2522   1.578   .     S
C2493  C2528   1.394   .     S
C2493  C2544   1.395   .     D
C2494  C2499   1.308   .     D
C2495  C2520   1.614   .     S
C2496  C2527   1.533   .     S
C2496  C2554   1.266   .     D
C2496  C2596   1.506   .     S
C2497  C2508   1.281   .     S
C2497  C2499   1.466   .     S
C2497  C2539   1.565   .     S
C2497  C3010   1.595   .     S
C2498  C2527   1.577   .     S
C2498  C2511   1.592   .     S
C2498  C2536   1.588   .     S
C2499  C2525   1.450   .     S
C2500  C2597   1.531   .     S
C2501  C2515   1.595   .     S
C2501  C2558   1.439   .     D
C2502  C2507   1.278   .     D
C2502  C2546   1.593   .     S
C2503  C2566   1.460   .     D
C2503  C2544   1.480   .     S
C2504  C2541   1.502   .     S
C2505  C2572   1.490   .     S
C2505  C2552   1.598   .     D
C2506  C2553   1.525   .     D
C2506  C2545   1.489   .     D
C2507  C2526   1.370   .     S
C2509  C2521   1.604   .     S
C2510  C2560   1.499   .     D
C2510  C2535   1.675   .     S
C2511  C2540   1.435   .     D
C2512  C2573   1.493   .     D
C2512  C2541   1.487   .     S
C2512  C2537   1.516   .     S
C2513  C2581   1.466   .     D
C2513  C2602   1.593   .     S
C2513  C2520   1.577   .     S
C2514  C2551   1.626   .     D
C2514  C2570   1.567   .     S
C2514  C2574   1.550   .     S
C2515  C2544   1.613   .     S
C2516  C2564   1.516   .     S
C2517  C2518   1.558   .     S
C2517  C2551   1.544   .     S
C2517  C2528   1.594   .     S
C2518  C2616   1.434   .     S
C2518  C2557   1.610   .     D
C2519  C2524   1.466   .     S
C2520  C2563   1.615   .     S
C2520  C2551   1.518   .     S
C2521  C2610   1.502   .     S
C2521  C2566   1.434   .     S
C2521  C2596   1.603   .     S
C2522  C2553   1.503   .     S
C2522  C2571   1.504   .     S
C2523  C2540   1.328   .     S
C2523  C2553   1.493   .     S
C2524  C2571   1.577   .     S
C2524  C2576   1.546   .     S
C2524  C2545   1.532   .     S
C2525  C2572   1.477   .     S
C2525  C2569   1.454   .     S
C2525  C3013   1.461   .     S
C2528  C2558   1.476   .     S
C2529  C2539   1.374   .     D
C2530  C2562   1.485   .     S
C2531  C2534   1.526   .     D
C2531  C2533   1.590   .     S
C2531  C2537   1.545   .     S
C2532  C3017   1.483   .     S
C2533  C2575   1.535   .     S
C2534  C2555   1.623   .     S
C2534  C2570   1.553   .     S
C2537  C2549   1.553   .     S
C2537  C2568   1.481   .     S
C2538  C2539   1.514   .     S
C2538  C3028   1.404   .     D
C2540  C2560   1.527   .     S
C2541  C2556   1.519   .     S
C2542  C2550   1.604   .     D
C2545  C2552   1.515   .     S
C2546  C2559   1.542   .     D
C2547  C2567   1.558   .     D
C2547  C2578   1.617   .     D
C2548  C2571   1.565   .     S
C2550  C2567   1.442   .     S
C2550  C2565   1.559   .     S
C2556  C2571   1.536   .     S
C2559  C2573   1.348   .     S
C2559  C2568   1.594   .     S
C2561  C2566   1.420   .     S
C2562  C2576   1.389   .     S
C2562  C2569   1.478   .     D
C2564  C2572   1.632   .     S
C2564  C3020   1.557   .     S
C2565  C2574   1.287   .     S
C2567  C2590   1.556   .     S
C2572  C2576   1.355   .     S
C2573  C2575   1.503   .     S
C2574  C2575   1.565   .     S
C2577  C2583   1.496   .     S
C2577  C2588   1.605   .     S
C2578  C2585   1.475   .     S
C2578  C2602   1.498   .     S
C2579  C2825   1.564   .     S
C2579  C2598   1.532   .     S
C2579  C2595   1.505   .     D
C2580  C2612   1.280   .     S
C2580  C2613   1.359   .     S
C2580  C2594   1.458   .     S
C2580  C2588   1.305   .     S
C2581  C2623   1.631   .     S
C2582  C2587   1.304   .     D
C2582  C2589   1.507   .     S
C2582  C2613   1.410   .     S
C2583  C2605   1.556   .     S
C2583  C2598   1.510   .     S
C2583  C2831   1.370   .     S
C2584  C2596   1.514   .     S
C2584  C2606   1.601   .     T
C2585  C2600   1.577   .     S
C2585  C2614   1.555   .     S
C2586  C2589   1.521   .     S
C2586  C2604   1.274   .     D
C2586  C2618   1.422   .     S
C2587  C2612   1.485   .     S
C2587  C2837   1.568   .     S
C2588  C2617   1.738   .     S
C2588  C2599   1.376   .     S
C2589  C2607   1.323   .     S
C2589  C2608   1.504   .     S
C2590  C2614   1.492   .     S
C2591  C2605   1.488   .     D
C2592  C2603   1.572   .     D
C2592  C2613   1.611   .     D
C2593  C2610   1.304   .     S
C2594  C2609   1.467   .     D
C2595  C2606   1.469   .     S
C2596  C2601   1.603   .     S
C2597  C2599   1.566   .     S
C2597  C2601   1.530   .     S
C2597  C2610   1.573   .     S
C2598  C2601   1.565   .     S
C2599  C2615   1.599   .     S
C2600  C2603   1.510   .     S
C2600  C2611   1.526   .     S
C2600  C2622   1.602   .     S
C2601  C2621   1.461   .     S
C2602  C2609   1.482   .     S
C2602  C2616   1.489   .     S
C2603  C2609   1.554   .     S
C2604  C2607   1.534   .     S
C2604  C2853   1.553   .     S
C2605  C2617   1.574   .     S
C2607  C2837   1.511   .     S
C2610  C2616   1.433   .     S
C2612  C2794   1.463   .     D
C2615  C2620   1.489   .     S
C2615  C2621   1.501   .     D
C2616  C2624   1.267   .     S
C2617  C2619   1.552   .     S
C2617  C2620   1.335   .     S
C2618  C2791   1.380   .     S
C2618  C2794   1.589   .     S
C2618  C2619   1.627   .     S
C2622  C2623   1.536   .     D
C2625  C2662   1.457   .     D
C2626  C2668   1.604   .     S
C2626  C2661   1.287   .     S
C2627  C2650   1.548   .     D
C2627  C2645   1.610   .     D
C2628  C2673   1.393   .     S
C2628  C2682   1.448   .     D
C2628  C2629   1.595   .     S
C2629  C2662   1.510   .     S
C2629  C2709   1.288   .     D
C2630  C2678   1.483   .     D
C2631  C2636   1.486   .     D
C2631  C2679   1.656   .     S
C2631  C2664   1.567   .     S
C2632  C2687   1.304   .     S
C2632  C2698   1.280   .     S
C2633  C2654   1.427   .     S
C2633  C2671   1.536   .     S
C2634  C2649   1.523   .     S
C2634  C2665   1.594   .     D
C2634  C2697   1.310   .     S
C2635  C2674   1.525   .     S
C2635  C2698   1.619   .     S
C2635  C2642   1.429   .     S
C2636  C2700   1.418   .     S
C2637  C2683   1.709   .     S
C2637  C2687   1.312   .     S
C2638  C2667   1.417   .     S
C2638  C2650   1.586   .     S
C2638  C2690   1.315   .     S
C2639  C2667   1.553   .     D
C2640  C2648   1.528   .     S
C2640  C2683   1.503   .     S
C2640  C2654   1.590   .     S
C2640  C2687   1.501   .     S
C2641  C2688   1.570   .     D
C2641  C2690   1.392   .     D
C2642  C2678   1.345   .     S
C2643  C2683   1.588   .     D
C2643  C2659   1.574   .     D
C2644  C2673   1.316   .     S
C2644  C2665   1.428   .     S
C2644  C2686   1.497   .     S
C2644  C2685   1.581   .     S
C2645  C2684   1.433   .     S
C2645  C2647   1.482   .     S
C2646  C2680   1.413   .     D
C2646  C2647   1.634   .     S
C2647  C2670   1.318   .     S
C2647  C3117   1.521   .     S
C2648  C2730   1.487   .     S
C2648  C2733   1.572   .     D
C2649  C2655   1.526   .     D
C2649  C2657   1.614   .     S
C2650  C2652   1.541   .     S
C2651  C2667   1.572   .     S
C2651  C2704   1.512   .     S
C2653  C2684   1.434   .     S
C2654  C2663   1.569   .     S
C2654  C2657   1.548   .     S
C2656  C2740   1.563   .     D
C2657  C2686   1.543   .     D
C2658  C2699   1.285   .     D
C2658  C2700   1.331   .     S
C2658  C2681   1.422   .     S
C2659  C2660   1.553   .     S
C2659  C2691   1.549   .     S
C2660  C2757   1.604   .     S
C2660  C2695   1.565   .     D
C2661  C2679   1.474   .     T
C2662  C2692   1.480   .     S
C2663  C2750   1.574   .     T
C2664  C2676   1.540   .     S
C2664  C3122   1.553   .     S
C2664  C3102   1.477   .     S
C2666  C2676   1.351   .     D
C2666  C2681   1.455   .     D
C2668  C2676   1.500   .     S
C2669  C2706   1.488   .     D
C2669  C2708   1.416   .     S
C2670  C2707   1.441   .     D
C2670  C3163   1.422   .     S
C2671  C2687   1.332   .     S
C2671  C2698   1.406   .     S
C2671  C2702   1.630   .     S
C2672  C2698   1.619   .     S
C2673  C2696   1.284   .     D
C2674  C2693   1.481   .     S
C2675  C2680   1.507   .     S
C2677  C2705   1.462   .     D
C2677  C2709   1.414   .     S
C2680  C3169   1.444   .     S
C2681  C3122   1.374   .     S
C2682  C2694   1.263   .     D
C2685  C2703   1.552   .     D
C2689  C2692   1.559   .     S
C2689  C2701   1.559   .     S
C2689  C2711   1.535   .     S
C2689  C2691   1.574   .     S
C2690  C2706   1.542   .     S
C2692  C2725   1.604   .     D
C2693  C2702   1.498   .     T
C2694  C2696   1.442   .     S
C2694  C2706   1.579   .     S
C2695  C2703   1.272   .     D
C2699  C2708   1.318   .     D
C2700  C2707   1.439   .     S
C2700  C3172   1.318   .     S
C2701  C2724   1.548   .     D
C2701  C2705   1.575   .     S
C2704  C2709   1.625   .     S
C2705  C2745   1.386   .     S
C2707  C2708   1.334   .     S
C2710  C2721   1.449   .     S
C2710  C2730   1.541   .     S
C2711  C2716   1.621   .     D
C2711  C2719   1.270   .     S
C2712  C2720   1.479   .     S
C2713  C2752   1.539   .     S
C2713  C2753   1.381   .     S
C2713  C2721   1.362   .     D
C2714  C2723   1.589   .     S
C2714  C2720   1.598   .     S
C2714  C2753   1.443   .     D
C2715  C2738   1.538   .     S
C2715  C2726   1.306   .     S
C2715  C2841   1.311   .     S
C2715  C2717   1.322   .     S
C2716  C2755   1.626   .     S
C2716  C2736   1.505   .     S
C2717  C2760   1.569   .     S
C2717  C2724   1.543   .     S
C2717  C2728   1.378   .     S
C2718  C2723   1.546   .     S
C2718  C2743   1.264   .     T
C2719  C2756   1.573   .     S
C2719  C2729   1.531   .     S
C2719  C2762   1.391   .     S
C2720  C2752   1.455   .     S
C2721  C2735   1.264   .     S
C2722  C2730   1.524   .     S
C2722  C2732   1.499   .     D
C2723  C2746   1.510   .     S
C2723  C2747   1.293   .     S
C2724  C2755   1.635   .     S
C2725  C2729   1.491   .     S
C2725  C2749   1.578   .     S
C2726  C2754   1.554   .     S
C2726  C2825   1.604   .     S
C2726  C2728   1.264   .     S
C2727  C2731   1.484   .     D
C2727  C2753   1.404   .     S
C2727  C2742   1.407   .     S
C2728  C2734   1.536   .     S
C2729  C2760   1.586   .     D
C2731  C2739   1.581   .     D
C2732  C2748   1.565   .     S
C2732  C2761   1.544   .     S
C2733  C2735   1.546   .     S
C2733  C2750   1.495   .     S
C2734  C2763   1.522   .     S
C2735  C2748   1.578   .     D
C2736  C2742   1.304   .     D
C2736  C2759   1.625   .     S
C2737  C2738   1.587   .     S
C2737  C2751   1.536   .     S
C2737  C2739   1.543   .     S
C2737  C2744   1.556   .     S
C2739  C2758   1.512   .     S
C2740  C2748   1.545   .     S
C2740  C2757   1.553   .     S
C2741  C2822   1.431   .     D
C2741  C2747   1.503   .     D
C2742  C2756   1.472   .     S
C2744  C2756   1.529   .     D
C2744  C2760   1.544   .     S
C2745  C2749   1.424   .     D
C2747  C2777   1.444   .     S
C2751  C2819   1.596   .     S
C2751  C2764   1.496   .     D
C2755  C2764   1.483   .     D
C2757  C2762   1.308   .     D
C2758  C2797   1.538   .     S
C2759  C2761   1.538   .     T
C2763  C2814   1.656   .     T
C2765  C2766   1.440   .     D
C2765  C2816   1.504   .     S
C2765  C2809   1.481   .     S
C2766  C2802   1.587   .     S
C2766  C2859   1.278   .     S
C2767  C2835   1.305   .     S
C2767  C2849   1.314   .     S
C2768  C2805   1.618   .     D
C2768  C2819   1.569   .     S
C2769  C2850   1.402   .     S
C2769  C2854   1.498   .     S
C2769  C2846   1.533   .     S
C2770  C2796   1.558   .     T
C2770  C2813   1.632   .     S
C2771  C2783   1.395   .     D
C2771  C2825   1.496   .     S
C2772  C2787   1.543   .     S
C2773  C2788   1.586   .     S
C2773  C2792   1.618   .     S
C2773  C2812   1.545   .     D
C2774  C2789   1.542   .     S
C2774  C2805   1.570   .     S
C2774  C2807   1.524   .     S
C2774  C2848   1.419   .     S
C2775  C2798   1.406   .     D
C2775  C2812   1.539   .     S
C2775  C2821   1.446   .     S
C2776  C2849   1.520   .     S
C2776  C2784   1.611   .     S
C2776  C2817   1.438   .     S
C2777  C2819   1.620   .     S
C2778  C2833   1.549   .     S
C2778  C2830   1.475   .     S
C2778  C2835   1.397   .     S
C2778  C2820   1.596   .     S
C2779  C2790   1.500   .     D
C2779  C2809   1.599   .     S
C2779  C2838   1.538   .     S
C2780  C2809   1.487   .     S
C2780  C2834   1.554   .     T
C2781  C2796   1.568   .     S
C2781  C2830   1.416   .     D
C2781  C2835   1.466   .     S
C2782  C2801   1.523   .     T
C2782  C2830   1.417   .     S
C2783  C2838   1.432   .     S
C2783  C2831   1.362   .     S
C2784  C2823   1.489   .     T
C2785  C2850   1.346   .     S
C2785  C2803   1.544   .     S
C2785  C2804   1.535   .     D
C2786  C2816   1.388   .     S
C2786  C2832   1.567   .     D
C2786  C2807   1.523   .     S
C2787  C2806   1.560   .     S
C2787  C2811   1.300   .     S
C2787  C2829   1.460   .     S
C2789  C2803   1.544   .     S
C2789  C2799   1.559   .     S
C2789  C2846   1.296   .     S
C2790  C2828   1.450   .     D
C2791  C2809   1.628   .     S
C2793  C2797   1.598   .     S
C2793  C2836   1.536   .     D
C2793  C2842   1.532   .     S
C2794  C2847   1.508   .     S
C2795  C2825   1.589   .     S
C2795  C2831   1.393   .     D
C2795  C2814   1.479   .     S
C2797  C2819   1.521   .     S
C2797  C2848   1.498   .     S
C2798  C2850   1.475   .     S
C2798  C2820   1.577   .     S
C2799  C2820   1.538   .     D
C2800  C2854   1.494   .     D
C2800  C2856   1.537   .     S
C2800  C2828   1.552   .     S
C2801  C2806   1.524   .     S
C2802  C2840   1.621   .     S
C2802  C2857   1.555   .     S
C2802  C2854   1.622   .     S
C2803  C2832   1.494   .     D
C2804  C2840   1.559   .     S
C2804  C2816   1.656   .     S
C2805  C2810   1.495   .     S
C2806  C2840   1.512   .     S
C2806  C2850   1.545   .     S
C2807  C2855   1.512   .     S
C2807  C2842   1.585   .     S
C2808  C2827   1.436   .     D
C2808  C2842   1.502   .     D
C2810  C2855   1.523   .     D
C2810  C2836   1.476   .     S
C2811  C2821   1.574   .     S
C2811  C2843   1.554   .     S
C2812  C2833   1.543   .     S
C2813  C2835   1.315   .     S
C2813  C2849   1.390   .     S
C2813  C2852   1.562   .     S
C2815  C2849   1.607   .     S
C2816  C2846   1.394   .     S
C2817  C2824   1.287   .     S
C2817  C2844   1.447   .     S
C2818  C2843   1.499   .     S
C2822  C2824   1.277   .     S
C2822  C2844   1.333   .     S
C2823  C2852   1.530   .     S
C2826  C2829   1.303   .     S
C2826  C2857   1.424   .     S
C2826  C2843   1.294   .     D
C2827  C2848   1.308   .     D
C2828  C2845   1.382   .     S
C2829  C2839   1.499   .     S
C2834  C2838   1.583   .     S
C2836  C2841   1.442   .     S
C2837  C2847   1.641   .     D
C2838  C2855   1.535   .     S
C2839  C2851   1.435   .     S
C2844  C2852   1.579   .     D
C2845  C2846   1.626   .     S
C2847  C2856   1.458   .     S
C2851  C2857   1.278   .     S
C2851  C2859   1.495   .     S
C2853  C2859   1.510   .     D
C2853  C2856   1.533   .     S
C2856  C2858   1.539   .     S
C2857  C2858   1.587   .     S
C2860  C2861   1.536   .     D
C2860  C2862   1.360   .     S
C2860  C3059   1.596   .     S
C2861  C2928   1.457   .     S
C2862  C2935   1.397   .     S
C2862  C3236   1.455   .     D
C2863  C2893   1.357   .     S
C2863  C2896   1.299   .     S
C2864  C2871   1.590   .     S
C2864  C2867   1.366   .     D
C2864  C2896   1.281   .     S
C2865  C2869   1.441   .     S
C2865  C2871   1.454   .     D
C2866  C3098   1.458   .     D
C2866  C2895   1.329   .     D
C2867  C2893   1.283   .     S
C2868  C2873   1.545   .     S
C2869  C2885   1.563   .     S
C2869  C2881   1.597   .     S
C2869  C2876   1.620   .     S
C2870  C2894   1.473   .     S
C2870  C2892   1.432   .     S
C2870  C2895   1.376   .     S
C2870  C2884   1.514   .     S
C2871  C2887   1.275   .     S
C2872  C2877   1.503   .     S
C2872  C2881   1.528   .     S
C2872  C2892   1.596   .     S
C2873  C2880   1.273   .     S
C2873  C2891   1.534   .     S
C2873  C2879   1.548   .     S
C2875  C2878   1.539   .     D
C2875  C2896   1.579   .     S
C2876  C2902   1.480   .     S
C2876  C2878   1.528   .     S
C2876  C2884   1.573   .     S
C2877  C2879   1.457   .     S
C2878  C2887   1.577   .     S
C2879  C2902   1.588   .     D
C2880  C2885   1.526   .     S
C2880  C2971   1.423   .     S
C2880  C2899   1.634   .     S
C2882  C2890   1.544   .     T
C2882  C2903   1.560   .     S
C2883  C2899   1.609   .     S
C2884  C2901   1.456   .     S
C2886  C2898   1.467   .     D
C2886  C3097   1.603   .     D
C2887  C2961   1.469   .     D
C2888  C3019   1.545   .     S
C2889  C2891   1.321   .     S
C2889  C2980   1.394   .     D
C2889  C2899   1.420   .     S
C2890  C2987   1.592   .     S
C2891  C3017   1.531   .     S
C2891  C2897   1.498   .     S
C2893  C3110   1.496   .     S
C2893  C3136   1.630   .     S
C2894  C3083   1.546   .     D
C2894  C3109   1.486   .     S
C2896  C2901   1.635   .     S
C2897  C3023   1.629   .     T
C2898  C2901   1.310   .     S
C2899  C2970   1.534   .     S
C2900  C3109   1.485   .     D
C2900  C3110   1.588   .     S
C2900  C2901   1.574   .     S
C2903  C2992   1.452   .     T
C2904  C2933   1.409   .     S
C2904  C2945   1.530   .     S
C2904  C2908   1.551   .     S
C2904  C2911   1.497   .     S
C2905  C2947   1.260   .     S
C2905  C3201   1.492   .     D
C2905  C2941   1.372   .     S
C2906  C2944   1.298   .     S
C2906  C2920   1.461   .     D
C2906  C2917   1.314   .     S
C2907  C2953   1.544   .     S
C2907  C2915   1.629   .     S
C2908  C2921   1.514   .     S
C2908  C2926   1.502   .     S
C2908  C2932   1.421   .     S
C2909  C2947   1.462   .     S
C2909  C3242   1.492   .     S
C2909  C2930   1.379   .     D
C2910  C2940   1.499   .     D
C2910  C2931   1.550   .     S
C2910  C2941   1.536   .     S
C2911  C2937   1.265   .     D
C2911  C2936   1.388   .     S
C2912  C2918   1.522   .     S
C2912  C2939   1.466   .     S
C2912  C2920   1.602   .     S
C2912  C2941   1.611   .     S
C2913  C2922   1.467   .     S
C2913  C2939   1.472   .     S
C2914  C2939   1.507   .     D
C2915  C2924   1.614   .     S
C2915  C2925   1.432   .     D
C2916  C2928   1.533   .     S
C2916  C2944   1.266   .     D
C2917  C2928   1.577   .     D
C2918  C2979   1.531   .     S
C2919  C2933   1.574   .     S
C2921  C2948   1.500   .     D
C2921  C2931   1.587   .     S
C2922  C2953   1.466   .     S
C2922  C2988   1.593   .     S
C2922  C2924   1.577   .     S
C2923  C3008   1.434   .     S
C2924  C2948   1.615   .     S
C2924  C2943   1.518   .     S
C2925  C2932   1.504   .     S
C2926  C2940   1.523   .     D
C2927  C2947   1.279   .     D
C2927  C2941   1.385   .     S
C2929  C3186   1.261   .     S
C2929  C2944   1.481   .     S
C2929  C2935   1.575   .     D
C2930  C2935   1.502   .     S
C2931  C2946   1.273   .     D
C2932  C2937   1.570   .     S
C2933  C3268   1.516   .     S
C2933  C2936   1.512   .     S
C2934  C3200   1.427   .     S
C2936  C3245   1.542   .     S
C2942  C2949   1.617   .     D
C2945  C3207   1.279   .     S
C2945  C2946   1.446   .     D
C2949  C2955   1.475   .     S
C2949  C2988   1.498   .     S
C2950  C2989   1.499   .     D
C2951  C2952   1.477   .     S
C2951  C2983   1.352   .     D
C2951  C2997   1.637   .     S
C2952  C2973   1.513   .     S
C2952  C3034   1.501   .     S
C2952  C2977   1.566   .     S
C2954  C2956   1.509   .     D
C2955  C2982   1.577   .     D
C2955  C3003   1.555   .     S
C2956  C3022   1.394   .     S
C2956  C2962   1.568   .     S
C2957  C3004   1.381   .     S
C2957  C2969   1.561   .     D
C2957  C3025   1.615   .     S
C2958  C2975   1.580   .     D
C2958  C2987   1.427   .     D
C2959  C3004   1.478   .     D
C2959  C2984   1.592   .     D
C2960  C2965   1.626   .     S
C2960  C2975   1.455   .     S
C2960  C2978   1.515   .     S
C2960  C3016   1.458   .     S
C2962  C3003   1.492   .     S
C2963  C2966   1.356   .     S
C2963  C3012   1.447   .     D
C2963  C3023   1.541   .     S
C2964  C2983   1.405   .     S
C2964  C2999   1.624   .     S
C2964  C3000   1.570   .     S
C2964  C2978   1.663   .     S
C2965  C3014   1.540   .     D
C2966  C3000   1.432   .     S
C2966  C3013   1.564   .     S
C2966  C3020   1.583   .     S
C2967  C2997   1.575   .     S
C2968  C3001   1.460   .     D
C2968  C3009   1.523   .     D
C2970  C2987   1.555   .     S
C2970  C3016   1.533   .     D
C2971  C3017   1.486   .     S
C2972  C2991   1.501   .     S
C2972  C3027   1.685   .     D
C2972  C2997   1.338   .     S
C2973  C3006   1.620   .     S
C2973  C3031   1.437   .     S
C2973  C3027   1.659   .     S
C2974  C3010   1.599   .     S
C2975  C2981   1.600   .     S
C2976  C2992   1.469   .     S
C2977  C3010   1.509   .     S
C2977  C3024   1.587   .     S
C2978  C3029   1.585   .     S
C2978  C3009   1.587   .     S
C2979  C2995   1.573   .     T
C2980  C2996   1.469   .     S
C2980  C3009   1.505   .     S
C2981  C3029   1.272   .     S
C2981  C3001   1.507   .     S
C2981  C3033   1.567   .     S
C2982  C2990   1.510   .     S
C2982  C2998   1.526   .     S
C2983  C3014   1.333   .     S
C2984  C3007   1.591   .     S
C2984  C3018   1.605   .     S
C2985  C2998   1.576   .     S
C2985  C2986   1.628   .     S
C2985  C2991   1.421   .     D
C2986  C3032   1.432   .     D
C2988  C2993   1.482   .     S
C2988  C3008   1.489   .     S
C2989  C3028   1.544   .     S
C2989  C3034   1.543   .     S
C2990  C3004   1.556   .     S
C2990  C2993   1.554   .     D
C2991  C3022   1.446   .     S
C2994  C3031   1.654   .     D
C2995  C3008   1.433   .     S
C2996  C3000   1.558   .     D
C2996  C3016   1.514   .     S
C2997  C3011   1.287   .     S
C2999  C3024   1.556   .     S
C2999  C3012   1.553   .     D
C3002  C3006   1.519   .     D
C3002  C3010   1.444   .     S
C3002  C3021   1.595   .     S
C3005  C3019   1.562   .     S
C3005  C3021   1.290   .     S
C3008  C3025   1.267   .     S
C3011  C3014   1.426   .     S
C3011  C3029   1.618   .     D
C3013  C3024   1.499   .     D
C3015  C3022   1.516   .     D
C3015  C3030   1.557   .     D
C3017  C3020   1.529   .     S
C3018  C3025   1.439   .     D
C3018  C3033   1.499   .     S
C3019  C3031   1.304   .     S
C3019  C3034   1.491   .     S
C3021  C3028   1.519   .     S
C3026  C3034   1.638   .     S
C3026  C3030   1.459   .     S
C3030  C3032   1.436   .     S
C3035  C3049   1.486   .     S
C3035  C3054   1.510   .     D
C3035  C3080   1.288   .     S
C3036  C3060   1.267   .     S
C3036  C3038   1.507   .     S
C3036  C3072   1.523   .     S
C3036  C3040   1.555   .     S
C3037  C3046   1.384   .     D
C3037  C3056   1.360   .     S
C3038  C3058   1.526   .     S
C3038  C3047   1.501   .     S
C3038  C3056   1.527   .     S
C3039  C3065   1.709   .     S
C3039  C3066   1.557   .     D
C3040  C3062   1.409   .     S
C3040  C3061   1.394   .     S
C3041  C3045   1.528   .     D
C3041  C3065   1.503   .     S
C3042  C3095   1.559   .     S
C3042  C3056   1.571   .     D
C3042  C3065   1.514   .     S
C3043  C3065   1.588   .     S
C3043  C3050   1.574   .     S
C3043  C3073   1.525   .     D
C3044  C3055   1.497   .     S
C3044  C3064   1.538   .     D
C3044  C3053   1.637   .     S
C3045  C3114   1.487   .     S
C3045  C3124   1.572   .     S
C3047  C3052   1.575   .     S
C3047  C3073   1.366   .     D
C3048  C3139   1.563   .     D
C3048  C3053   1.347   .     D
C3049  C3078   1.438   .     S
C3049  C3069   1.656   .     S
C3049  C3076   1.612   .     S
C3050  C3051   1.553   .     D
C3050  C3069   1.549   .     S
C3051  C3157   1.604   .     D
C3052  C3062   1.600   .     S
C3052  C3057   1.621   .     D
C3053  C3069   1.458   .     S
C3054  C3070   1.480   .     D
C3055  C3071   1.574   .     D
C3057  C3071   1.598   .     S
C3057  C3076   1.613   .     S
C3058  C3062   1.553   .     S
C3058  C3228   1.536   .     D
C3059  C3077   1.462   .     S
C3059  C3080   1.414   .     D
C3060  C3061   1.527   .     S
C3062  C3199   1.355   .     S
C3063  C3064   1.444   .     S
C3063  C3071   1.314   .     S
C3063  C3078   1.565   .     S
C3063  C3217   1.509   .     S
C3064  C3068   1.543   .     S
C3067  C3070   1.559   .     S
C3067  C3075   1.559   .     S
C3067  C3082   1.535   .     S
C3067  C3069   1.574   .     S
C3068  C3267   1.556   .     D
C3068  C3074   1.660   .     S
C3070  C3103   1.604   .     S
C3074  C3078   1.358   .     S
C3074  C3236   1.566   .     S
C3074  C3080   1.475   .     S
C3075  C3077   1.575   .     D
C3077  C3143   1.386   .     S
C3078  C3079   1.541   .     S
C3079  C3258   1.565   .     T
C3081  C3093   1.449   .     S
C3081  C3114   1.541   .     S
C3081  C3087   1.574   .     S
C3082  C3090   1.270   .     S
C3083  C3169   1.568   .     S
C3084  C3108   1.596   .     S
C3084  C3136   1.550   .     D
C3084  C3101   1.314   .     S
C3085  C3134   1.559   .     S
C3085  C3148   1.597   .     D
C3085  C3125   1.598   .     S
C3086  C3088   1.413   .     T
C3086  C3162   1.438   .     S
C3087  C3126   1.537   .     S
C3088  C3117   1.505   .     S
C3089  C3152   1.354   .     D
C3089  C3168   1.315   .     S
C3090  C3154   1.573   .     S
C3090  C3112   1.531   .     S
C3090  C3176   1.391   .     S
C3091  C3156   1.406   .     D
C3092  C3154   1.570   .     D
C3092  C3161   1.663   .     S
C3092  C3137   1.561   .     S
C3093  C3132   1.264   .     S
C3094  C3129   1.269   .     S
C3094  C3159   1.287   .     D
C3094  C3104   1.341   .     S
C3095  C3114   1.524   .     S
C3096  C3106   1.611   .     S
C3096  C3120   1.546   .     S
C3096  C3123   1.580   .     S
C3096  C3167   1.570   .     S
C3097  C3108   1.589   .     S
C3097  C3125   1.440   .     S
C3098  C3125   1.496   .     S
C3098  C3151   1.587   .     S
C3099  C3107   1.560   .     S
C3099  C3162   1.516   .     S
C3100  C3134   1.570   .     S
C3100  C3150   1.488   .     S
C3100  C3149   1.588   .     S
C3100  C3123   1.588   .     S
C3101  C3105   1.620   .     D
C3102  C3159   1.315   .     S
C3102  C3131   1.328   .     D
C3103  C3112   1.491   .     S
C3103  C3145   1.578   .     S
C3103  C3105   1.527   .     S
C3104  C3131   1.389   .     S
C3104  C3140   1.283   .     S
C3104  C3115   1.381   .     S
C3105  C3128   1.487   .     S
C3106  C3118   1.613   .     S
C3106  C3116   1.609   .     S
C3106  C3164   1.353   .     S
C3107  C3150   1.524   .     S
C3107  C3163   1.459   .     S
C3107  C3172   1.529   .     S
C3108  C3148   1.590   .     S
C3108  C3110   1.495   .     S
C3109  C3125   1.552   .     S
C3110  C3166   1.539   .     S
C3111  C3130   1.536   .     S
C3112  C3173   1.586   .     D
C3113  C3118   1.630   .     D
C3113  C3122   1.646   .     S
C3117  C3169   1.552   .     S
C3117  C3175   1.447   .     S
C3118  C3150   1.298   .     S
C3119  C3171   1.601   .     S
C3119  C3146   1.471   .     D
C3119  C3170   1.461   .     S
C3120  C3127   1.414   .     S
C3120  C3137   1.560   .     S
C3121  C3175   1.624   .     S
C3122  C3172   1.492   .     S
C3123  C3158   1.452   .     S
C3123  C3177   1.321   .     S
C3124  C3132   1.546   .     S
C3124  C3138   1.418   .     S
C3124  C3146   1.495   .     S
C3126  C3138   1.432   .     D
C3127  C3177   1.408   .     S
C3127  C3178   1.565   .     D
C3129  C3152   1.305   .     D
C3129  C3168   1.417   .     S
C3130  C3179   1.522   .     T
C3132  C3155   1.483   .     S
C3132  C3144   1.578   .     S
C3133  C3159   1.372   .     S
C3133  C3168   1.353   .     S
C3133  C3142   1.488   .     S
C3134  C3164   1.510   .     D
C3135  C3142   1.272   .     D
C3135  C3160   1.519   .     D
C3136  C3145   1.491   .     S
C3137  C3155   1.595   .     S
C3137  C3170   1.336   .     S
C3138  C3171   1.487   .     S
C3139  C3144   1.545   .     S
C3139  C3157   1.553   .     S
C3140  C3142   1.399   .     S
C3140  C3160   1.555   .     S
C3141  C3156   1.603   .     S
C3141  C3165   1.573   .     S
C3141  C3174   1.636   .     D
C3143  C3145   1.424   .     D
C3147  C3150   1.590   .     S
C3147  C3167   1.559   .     D
C3148  C3161   1.422   .     S
C3149  C3162   1.388   .     D
C3149  C3175   1.274   .     S
C3151  C3153   1.262   .     T
C3153  C3177   1.472   .     S
C3155  C3165   1.500   .     S
C3155  C3171   1.286   .     S
C3156  C3171   1.561   .     S
C3157  C3176   1.308   .     S
C3160  C3174   1.517   .     S
C3161  C3164   1.568   .     S
C3161  C3177   1.589   .     S
C3163  C3175   1.522   .     S
C3167  C3174   1.603   .     S
C3170  C3176   1.538   .     S
C3170  C3178   1.311   .     S
C3179  C3251   1.521   .     S
C3180  C3188   1.478   .     D
C3180  C3196   1.459   .     S
C3181  C3194   1.649   .     S
C3181  C3234   1.538   .     S
C3182  C3220   1.476   .     D
C3183  C3215   1.623   .     S
C3183  C3240   1.560   .     S
C3183  C3243   1.357   .     S
C3183  C3196   1.368   .     S
C3184  C3206   1.555   .     S
C3185  C3238   1.493   .     S
C3186  C3189   1.417   .     S
C3186  C3251   1.279   .     S
C3186  C3256   1.603   .     S
C3187  C3194   1.566   .     S
C3187  C3243   1.473   .     S
C3188  C3230   1.423   .     S
C3190  C3222   1.532   .     S
C3190  C3247   1.597   .     D
C3191  C3264   1.575   .     D
C3192  C3211   1.465   .     T
C3192  C3248   1.507   .     S
C3193  C3214   1.631   .     S
C3193  C3250   1.401   .     S
C3193  C3227   1.416   .     D
C3194  C3240   1.568   .     S
C3195  C3248   1.523   .     S
C3195  C3224   1.532   .     S
C3195  C3235   1.477   .     S
C3195  C3255   1.593   .     S
C3196  C3221   1.529   .     S
C3196  C3252   1.467   .     S
C3197  C3216   1.522   .     S
C3197  C3260   1.456   .     S
C3197  C3214   1.550   .     S
C3198  C3223   1.443   .     T
C3198  C3203   1.363   .     S
C3199  C3254   1.425   .     S
C3199  C3220   1.539   .     S
C3199  C3227   1.596   .     S
C3200  C3218   1.356   .     S
C3200  C3206   1.512   .     S
C3200  C3246   1.487   .     S
C3201  C3218   1.575   .     S
C3201  C3241   1.363   .     S
C3202  C3246   1.511   .     S
C3203  C3230   1.572   .     D
C3204  C3217   1.565   .     S
C3204  C3256   1.355   .     S
C3205  C3245   1.554   .     D
C3206  C3209   1.503   .     S
C3206  C3238   1.540   .     S
C3207  C3268   1.616   .     S
C3207  C3218   1.514   .     D
C3208  C3212   1.592   .     D
C3208  C3244   1.480   .     D
C3209  C3259   1.513   .     D
C3210  C3243   1.592   .     S
C3210  C3229   1.351   .     S
C3210  C3235   1.651   .     D
C3211  C3264   1.541   .     S
C3212  C3260   1.610   .     S
C3212  C3227   1.365   .     S
C3213  C3271   1.588   .     D
C3213  C3231   1.347   .     S
C3213  C3238   1.594   .     S
C3214  C3219   1.558   .     S
C3214  C3224   1.550   .     S
C3215  C3233   1.431   .     D
C3215  C3266   1.571   .     S
C3216  C3253   1.512   .     D
C3216  C3269   1.527   .     S
C3217  C3237   1.548   .     S
C3217  C3253   1.268   .     S
C3219  C3269   1.530   .     S
C3219  C3244   1.501   .     D
C3220  C3250   1.489   .     S
C3221  C3233   1.581   .     D
C3221  C3249   1.565   .     S
C3222  C3263   1.552   .     S
C3222  C3229   1.457   .     S
C3222  C3239   1.519   .     S
C3224  C3249   1.605   .     S
C3224  C3261   1.555   .     S
C3225  C3226   1.627   .     D
C3225  C3231   1.436   .     D
C3226  C3272   1.354   .     S
C3228  C3254   1.492   .     D
C3229  C3248   1.574   .     D
C3230  C3252   1.618   .     S
C3231  C3264   1.407   .     S
C3232  C3265   1.500   .     D
C3232  C3257   1.533   .     S
C3232  C3250   1.451   .     S
C3234  C3266   1.568   .     S
C3236  C3251   1.557   .     S
C3237  C3260   1.579   .     S
C3238  C3255   1.471   .     S
C3241  C3256   1.575   .     D
C3242  C3270   1.659   .     D
C3242  C3246   1.594   .     S
C3243  Cu3691  2.155   .     S
C3245  C3259   1.378   .     S
C3246  C3269   1.560   .     S
C3249  C3257   1.620   .     S
C3249  C3262   1.327   .     S
C3250  C3262   1.425   .     S
C3251  C3267   1.649   .     S
C3252  C3257   1.402   .     D
C3253  C3270   1.409   .     S
C3254  C3265   1.439   .     S
C3255  C3269   1.600   .     S
C3258  C3270   1.582   .     S
C3259  C3271   1.301   .     S
C3260  C3265   1.525   .     S
C3263  C3266   1.468   .     D
C3271  C3272   1.486   .     S
Cu3273 Cu3275  2.556   .     S
Cu3273 Cu3277  2.556   .     S
Cu3273 Cu3279  2.556   .     S
Cu3273 Cu3294  2.556   .     S
Cu3273 Cu3296  2.556   .     S
Cu3273 Cu3365  2.556   .     S
Cu3273 Cu3367  2.556   .     S
Cu3273 Cu3385  2.556   .     S
Cu3273 Cu3629  2.556   .     S
Cu3273 Cu3630  2.556   .     S
Cu3273 Cu3641  2.556   .     S
Cu3273 Cu3701  2.556   .     S
Cu3274 Cu3276  2.556   .     S
Cu3274 Cu3278  2.556   .     S
Cu3274 Cu3295  2.556   .     S
Cu3274 Cu3297  2.556   .     S
Cu3274 Cu3299  2.556   .     S
Cu3274 Cu3316  2.556   .     S
Cu3274 Cu3390  2.556   .     S
Cu3274 Cu3401  2.556   .     S
Cu3274 Cu3403  2.556   .     S
Cu3275 Cu3277  2.556   .     S
Cu3275 Cu3279  2.556   .     S
Cu3275 Cu3294  2.556   .     S
Cu3275 Cu3296  2.556   .     S
Cu3275 Cu3300  2.556   .     S
Cu3275 Cu3386  2.556   .     S
Cu3275 Cu3391  2.556   .     S
Cu3275 Cu3402  2.556   .     S
Cu3276 Cu3278  2.556   .     S
Cu3276 Cu3281  2.556   .     S
Cu3276 Cu3390  2.556   .     S
Cu3277 Cu3279  2.556   .     S
Cu3277 Cu3280  2.556   .     S
Cu3277 Cu3282  2.556   .     S
Cu3277 Cu3365  2.556   .     S
Cu3277 Cu3367  2.556   .     S
Cu3277 Cu3369  2.556   .     S
Cu3277 Cu3386  2.556   .     S
Cu3277 Cu3391  2.556   .     S
Cu3277 Cu3392  2.556   .     S
Cu3277 Cu3468  2.556   .     S
Cu3278 Cu3281  2.556   .     S
Cu3278 Cu3297  2.556   .     S
Cu3278 Cu3299  2.556   .     S
Cu3278 Cu3302  2.556   .     S
Cu3278 Cu3628  2.556   .     S
Cu3278 Cu3634  2.556   .     S
Cu3278 Cu3644  2.556   .     S
Cu3279 Cu3280  2.556   .     S
Cu3279 Cu3282  2.556   .     S
Cu3279 Cu3300  2.556   .     S
Cu3279 Cu3629  2.556   .     S
Cu3279 Cu3630  2.556   .     S
Cu3279 Cu3635  2.556   .     S
Cu3280 Cu3282  2.556   .     S
Cu3280 Cu3283  2.556   .     S
Cu3280 Cu3285  2.556   .     S
Cu3280 Cu3367  2.556   .     S
Cu3280 Cu3369  2.556   .     S
Cu3280 Cu3371  2.556   .     S
Cu3280 Cu3630  2.556   .     S
Cu3280 Cu3635  2.556   .     S
Cu3280 Cu3636  2.556   .     S
Cu3280 Cu3705  2.556   .     S
Cu3281 Cu3284  2.556   .     S
Cu3281 Cu3299  2.556   .     S
Cu3281 Cu3302  2.556   .     S
Cu3281 Cu3304  2.556   .     S
Cu3281 Cu3390  2.556   .     S
Cu3281 Cu3396  2.556   .     S
Cu3281 Cu3407  2.556   .     S
Cu3282 Cu3283  2.556   .     S
Cu3282 Cu3285  2.556   .     S
Cu3282 Cu3300  2.556   .     S
Cu3282 Cu3391  2.556   .     S
Cu3282 Cu3392  2.556   .     S
Cu3282 Cu3397  2.556   .     S
Cu3283 Cu3285  2.556   .     S
Cu3283 Cu3286  2.556   .     S
Cu3283 Cu3288  2.556   .     S
Cu3283 Cu3369  2.556   .     S
Cu3283 Cu3371  2.556   .     S
Cu3283 Cu3373  2.556   .     S
Cu3283 Cu3392  2.556   .     S
Cu3283 Cu3397  2.556   .     S
Cu3283 Cu3398  2.556   .     S
Cu3283 Cu3472  2.556   .     S
Cu3284 Cu3287  2.556   .     S
Cu3284 Cu3302  2.556   .     S
Cu3284 Cu3304  2.556   .     S
Cu3284 Cu3306  2.556   .     S
Cu3284 Cu3634  2.556   .     S
Cu3284 Cu3648  2.556   .     S
Cu3285 Cu3286  2.556   .     S
Cu3285 Cu3288  2.556   .     S
Cu3285 Cu3635  2.556   .     S
Cu3285 Cu3636  2.556   .     S
Cu3286 Cu3288  2.556   .     S
Cu3286 Cu3289  2.556   .     S
Cu3286 Cu3371  2.556   .     S
Cu3286 Cu3373  2.556   .     S
Cu3286 Cu3375  2.556   .     S
Cu3286 Cu3636  2.556   .     S
Cu3286 Cu3638  2.556   .     S
Cu3286 Cu3709  2.556   .     S
Cu3287 Cu3304  2.556   .     S
Cu3287 Cu3306  2.556   .     S
Cu3287 Cu3308  2.556   .     S
Cu3287 Cu3396  2.556   .     S
Cu3287 Cu3411  2.556   .     S
Cu3288 Cu3289  2.556   .     S
Cu3288 Cu3397  2.556   .     S
Cu3288 Cu3398  2.556   .     S
Cu3289 Cu3373  2.556   .     S
Cu3289 Cu3375  2.556   .     S
Cu3289 Cu3379  2.556   .     S
Cu3289 Cu3398  2.556   .     S
Cu3289 Cu3476  2.556   .     S
Cu3290 Cu3291  2.556   .     S
Cu3290 Cu3293  2.556   .     S
Cu3290 Cu3378  2.556   .     S
Cu3290 Cu3381  2.556   .     S
Cu3290 Cu3383  2.556   .     S
Cu3290 Cu3399  2.556   .     S
Cu3290 Cu3480  2.556   .     S
Cu3291 Cu3293  2.556   .     S
Cu3291 Cu3294  2.556   .     S
Cu3291 Cu3296  2.556   .     S
Cu3291 Cu3381  2.556   .     S
Cu3291 Cu3383  2.556   .     S
Cu3291 Cu3385  2.556   .     S
Cu3291 Cu3639  2.556   .     S
Cu3291 Cu3641  2.556   .     S
Cu3291 Cu3715  2.556   .     S
Cu3292 Cu3295  2.556   .     S
Cu3292 Cu3312  2.556   .     S
Cu3292 Cu3314  2.556   .     S
Cu3292 Cu3316  2.556   .     S
Cu3292 Cu3401  2.556   .     S
Cu3292 Cu3417  2.556   .     S
Cu3293 Cu3294  2.556   .     S
Cu3293 Cu3296  2.556   .     S
Cu3293 Cu3399  2.556   .     S
Cu3293 Cu3402  2.556   .     S
Cu3294 Cu3296  2.556   .     S
Cu3294 Cu3365  2.556   .     S
Cu3294 Cu3383  2.556   .     S
Cu3294 Cu3385  2.556   .     S
Cu3294 Cu3386  2.556   .     S
Cu3294 Cu3399  2.556   .     S
Cu3294 Cu3402  2.556   .     S
Cu3294 Cu3484  2.556   .     S
Cu3295 Cu3297  2.556   .     S
Cu3295 Cu3314  2.556   .     S
Cu3295 Cu3316  2.556   .     S
Cu3295 Cu3628  2.556   .     S
Cu3295 Cu3656  2.556   .     S
Cu3296 Cu3629  2.556   .     S
Cu3296 Cu3641  2.556   .     S
Cu3297 Cu3298  2.556   .     S
Cu3297 Cu3299  2.556   .     S
Cu3297 Cu3301  2.556   .     S
Cu3297 Cu3316  2.556   .     S
Cu3297 Cu3317  2.556   .     S
Cu3297 Cu3628  2.556   .     S
Cu3297 Cu3643  2.556   .     S
Cu3297 Cu3644  2.556   .     S
Cu3297 Cu3656  2.556   .     S
Cu3298 Cu3299  2.556   .     S
Cu3298 Cu3301  2.556   .     S
Cu3298 Cu3316  2.556   .     S
Cu3298 Cu3317  2.556   .     S
Cu3298 Cu3318  2.556   .     S
Cu3298 Cu3320  2.556   .     S
Cu3298 Cu3338  2.556   .     S
Cu3298 Cu3403  2.556   .     S
Cu3298 Cu3406  2.556   .     S
Cu3298 Cu3420  2.556   .     S
Cu3298 Cu3421  2.556   .     S
Cu3299 Cu3301  2.556   .     S
Cu3299 Cu3302  2.556   .     S
Cu3299 Cu3303  2.556   .     S
Cu3299 Cu3390  2.556   .     S
Cu3299 Cu3403  2.556   .     S
Cu3299 Cu3406  2.556   .     S
Cu3299 Cu3407  2.556   .     S
Cu3300 Cu3391  2.556   .     S
Cu3301 Cu3302  2.556   .     S
Cu3301 Cu3303  2.556   .     S
Cu3301 Cu3318  2.556   .     S
Cu3301 Cu3320  2.556   .     S
Cu3301 Cu3322  2.556   .     S
Cu3301 Cu3643  2.556   .     S
Cu3301 Cu3644  2.556   .     S
Cu3301 Cu3647  2.556   .     S
Cu3301 Cu3660  2.556   .     S
Cu3302 Cu3303  2.556   .     S
Cu3302 Cu3304  2.556   .     S
Cu3302 Cu3305  2.556   .     S
Cu3302 Cu3634  2.556   .     S
Cu3302 Cu3644  2.556   .     S
Cu3302 Cu3647  2.556   .     S
Cu3302 Cu3648  2.556   .     S
Cu3303 Cu3304  2.556   .     S
Cu3303 Cu3305  2.556   .     S
Cu3303 Cu3320  2.556   .     S
Cu3303 Cu3322  2.556   .     S
Cu3303 Cu3324  2.556   .     S
Cu3303 Cu3406  2.556   .     S
Cu3303 Cu3407  2.556   .     S
Cu3303 Cu3410  2.556   .     S
Cu3303 Cu3425  2.556   .     S
Cu3304 Cu3305  2.556   .     S
Cu3304 Cu3306  2.556   .     S
Cu3304 Cu3307  2.556   .     S
Cu3304 Cu3396  2.556   .     S
Cu3304 Cu3407  2.556   .     S
Cu3304 Cu3410  2.556   .     S
Cu3304 Cu3411  2.556   .     S
Cu3305 Cu3306  2.556   .     S
Cu3305 Cu3307  2.556   .     S
Cu3305 Cu3322  2.556   .     S
Cu3305 Cu3324  2.556   .     S
Cu3305 Cu3326  2.556   .     S
Cu3305 Cu3647  2.556   .     S
Cu3305 Cu3648  2.556   .     S
Cu3305 Cu3651  2.556   .     S
Cu3305 Cu3664  2.556   .     S
Cu3306 Cu3307  2.556   .     S
Cu3306 Cu3308  2.556   .     S
Cu3306 Cu3309  2.556   .     S
Cu3306 Cu3648  2.556   .     S
Cu3306 Cu3651  2.556   .     S
Cu3307 Cu3308  2.556   .     S
Cu3307 Cu3309  2.556   .     S
Cu3307 Cu3324  2.556   .     S
Cu3307 Cu3326  2.556   .     S
Cu3307 Cu3328  2.556   .     S
Cu3307 Cu3410  2.556   .     S
Cu3307 Cu3411  2.556   .     S
Cu3307 Cu3414  2.556   .     S
Cu3307 Cu3429  2.556   .     S
Cu3308 Cu3309  2.556   .     S
Cu3308 Cu3311  2.556   .     S
Cu3308 Cu3411  2.556   .     S
Cu3308 Cu3414  2.556   .     S
Cu3309 Cu3311  2.556   .     S
Cu3309 Cu3326  2.556   .     S
Cu3309 Cu3328  2.556   .     S
Cu3309 Cu3331  2.556   .     S
Cu3309 Cu3651  2.556   .     S
Cu3309 Cu3668  2.556   .     S
Cu3310 Cu3312  2.556   .     S
Cu3310 Cu3313  2.556   .     S
Cu3310 Cu3330  2.556   .     S
Cu3310 Cu3334  2.556   .     S
Cu3310 Cu3416  2.556   .     S
Cu3310 Cu3433  2.556   .     S
Cu3311 Cu3328  2.556   .     S
Cu3311 Cu3331  2.556   .     S
Cu3311 Cu3414  2.556   .     S
Cu3311 Cu3434  2.556   .     S
Cu3312 Cu3313  2.556   .     S
Cu3312 Cu3314  2.556   .     S
Cu3312 Cu3315  2.556   .     S
Cu3312 Cu3416  2.556   .     S
Cu3312 Cu3417  2.556   .     S
Cu3313 Cu3314  2.556   .     S
Cu3313 Cu3315  2.556   .     S
Cu3313 Cu3330  2.556   .     S
Cu3313 Cu3334  2.556   .     S
Cu3313 Cu3336  2.556   .     S
Cu3313 Cu3655  2.556   .     S
Cu3313 Cu3672  2.556   .     S
Cu3314 Cu3315  2.556   .     S
Cu3314 Cu3316  2.556   .     S
Cu3314 Cu3317  2.556   .     S
Cu3314 Cu3655  2.556   .     S
Cu3314 Cu3656  2.556   .     S
Cu3315 Cu3316  2.556   .     S
Cu3315 Cu3317  2.556   .     S
Cu3315 Cu3334  2.556   .     S
Cu3315 Cu3336  2.556   .     S
Cu3315 Cu3338  2.556   .     S
Cu3315 Cu3416  2.556   .     S
Cu3315 Cu3417  2.556   .     S
Cu3315 Cu3420  2.556   .     S
Cu3315 Cu3439  2.556   .     S
Cu3316 Cu3317  2.556   .     S
Cu3316 Cu3401  2.556   .     S
Cu3316 Cu3403  2.556   .     S
Cu3316 Cu3417  2.556   .     S
Cu3316 Cu3420  2.556   .     S
Cu3317 Cu3318  2.556   .     S
Cu3317 Cu3336  2.556   .     S
Cu3317 Cu3338  2.556   .     S
Cu3317 Cu3643  2.556   .     S
Cu3317 Cu3655  2.556   .     S
Cu3317 Cu3656  2.556   .     S
Cu3317 Cu3676  2.556   .     S
Cu3318 Cu3319  2.556   .     S
Cu3318 Cu3320  2.556   .     S
Cu3318 Cu3321  2.556   .     S
Cu3318 Cu3338  2.556   .     S
Cu3318 Cu3339  2.556   .     S
Cu3318 Cu3643  2.556   .     S
Cu3318 Cu3659  2.556   .     S
Cu3318 Cu3660  2.556   .     S
Cu3318 Cu3676  2.556   .     S
Cu3319 Cu3320  2.556   .     S
Cu3319 Cu3321  2.556   .     S
Cu3319 Cu3338  2.556   .     S
Cu3319 Cu3339  2.556   .     S
Cu3319 Cu3340  2.556   .     S
Cu3319 Cu3342  2.556   .     S
Cu3319 Cu3362  2.556   .     S
Cu3319 Cu3421  2.556   .     S
Cu3319 Cu3424  2.556   .     S
Cu3319 Cu3442  2.556   .     S
Cu3319 Cu3443  2.556   .     S
Cu3320 Cu3321  2.556   .     S
Cu3320 Cu3322  2.556   .     S
Cu3320 Cu3323  2.556   .     S
Cu3320 Cu3406  2.556   .     S
Cu3320 Cu3421  2.556   .     S
Cu3320 Cu3424  2.556   .     S
Cu3320 Cu3425  2.556   .     S
Cu3321 Cu3322  2.556   .     S
Cu3321 Cu3323  2.556   .     S
Cu3321 Cu3340  2.556   .     S
Cu3321 Cu3342  2.556   .     S
Cu3321 Cu3344  2.556   .     S
Cu3321 Cu3659  2.556   .     S
Cu3321 Cu3660  2.556   .     S
Cu3321 Cu3663  2.556   .     S
Cu3321 Cu3680  2.556   .     S
Cu3322 Cu3323  2.556   .     S
Cu3322 Cu3324  2.556   .     S
Cu3322 Cu3325  2.556   .     S
Cu3322 Cu3647  2.556   .     S
Cu3322 Cu3660  2.556   .     S
Cu3322 Cu3663  2.556   .     S
Cu3322 Cu3664  2.556   .     S
Cu3323 Cu3324  2.556   .     S
Cu3323 Cu3325  2.556   .     S
Cu3323 Cu3342  2.556   .     S
Cu3323 Cu3344  2.556   .     S
Cu3323 Cu3346  2.556   .     S
Cu3323 Cu3424  2.556   .     S
Cu3323 Cu3425  2.556   .     S
Cu3323 Cu3428  2.556   .     S
Cu3323 Cu3447  2.556   .     S
Cu3324 Cu3325  2.556   .     S
Cu3324 Cu3326  2.556   .     S
Cu3324 Cu3327  2.556   .     S
Cu3324 Cu3410  2.556   .     S
Cu3324 Cu3425  2.556   .     S
Cu3324 Cu3428  2.556   .     S
Cu3324 Cu3429  2.556   .     S
Cu3325 Cu3326  2.556   .     S
Cu3325 Cu3327  2.556   .     S
Cu3325 Cu3344  2.556   .     S
Cu3325 Cu3346  2.556   .     S
Cu3325 Cu3348  2.556   .     S
Cu3325 Cu3663  2.556   .     S
Cu3325 Cu3664  2.556   .     S
Cu3325 Cu3667  2.556   .     S
Cu3325 Cu3684  2.556   .     S
Cu3326 Cu3327  2.556   .     S
Cu3326 Cu3328  2.556   .     S
Cu3326 Cu3329  2.556   .     S
Cu3326 Cu3651  2.556   .     S
Cu3326 Cu3664  2.556   .     S
Cu3326 Cu3667  2.556   .     S
Cu3326 Cu3668  2.556   .     S
Cu3327 Cu3328  2.556   .     S
Cu3327 Cu3329  2.556   .     S
Cu3327 Cu3346  2.556   .     S
Cu3327 Cu3348  2.556   .     S
Cu3327 Cu3351  2.556   .     S
Cu3327 Cu3428  2.556   .     S
Cu3327 Cu3429  2.556   .     S
Cu3327 Cu3432  2.556   .     S
Cu3327 Cu3451  2.556   .     S
Cu3328 Cu3329  2.556   .     S
Cu3328 Cu3331  2.556   .     S
Cu3328 Cu3333  2.556   .     S
Cu3328 Cu3414  2.556   .     S
Cu3328 Cu3429  2.556   .     S
Cu3328 Cu3432  2.556   .     S
Cu3328 Cu3434  2.556   .     S
Cu3329 Cu3331  2.556   .     S
Cu3329 Cu3333  2.556   .     S
Cu3329 Cu3348  2.556   .     S
Cu3329 Cu3351  2.556   .     S
Cu3329 Cu3354  2.556   .     S
Cu3329 Cu3667  2.556   .     S
Cu3329 Cu3668  2.556   .     S
Cu3329 Cu3671  2.556   .     S
Cu3329 Cu3688  2.556   .     S
Cu3330 Cu3332  2.556   .     S
Cu3330 Cu3334  2.556   .     S
Cu3330 Cu3335  2.556   .     S
Cu3330 Cu3670  2.556   .     S
Cu3330 Cu3672  2.556   .     S
Cu3331 Cu3333  2.556   .     S
Cu3331 Cu3668  2.556   .     S
Cu3331 Cu3671  2.556   .     S
Cu3332 Cu3334  2.556   .     S
Cu3332 Cu3335  2.556   .     S
Cu3332 Cu3350  2.556   .     S
Cu3332 Cu3353  2.556   .     S
Cu3332 Cu3357  2.556   .     S
Cu3332 Cu3433  2.556   .     S
Cu3332 Cu3438  2.556   .     S
Cu3332 Cu3455  2.556   .     S
Cu3333 Cu3351  2.556   .     S
Cu3333 Cu3354  2.556   .     S
Cu3333 Cu3358  2.556   .     S
Cu3333 Cu3432  2.556   .     S
Cu3333 Cu3434  2.556   .     S
Cu3333 Cu3456  2.556   .     S
Cu3334 Cu3335  2.556   .     S
Cu3334 Cu3336  2.556   .     S
Cu3334 Cu3337  2.556   .     S
Cu3334 Cu3416  2.556   .     S
Cu3334 Cu3433  2.556   .     S
Cu3334 Cu3438  2.556   .     S
Cu3334 Cu3439  2.556   .     S
Cu3335 Cu3336  2.556   .     S
Cu3335 Cu3337  2.556   .     S
Cu3335 Cu3353  2.556   .     S
Cu3335 Cu3357  2.556   .     S
Cu3335 Cu3360  2.556   .     S
Cu3335 Cu3670  2.556   .     S
Cu3335 Cu3672  2.556   .     S
Cu3335 Cu3675  2.556   .     S
Cu3335 Cu3694  2.556   .     S
Cu3336 Cu3337  2.556   .     S
Cu3336 Cu3338  2.556   .     S
Cu3336 Cu3339  2.556   .     S
Cu3336 Cu3655  2.556   .     S
Cu3336 Cu3672  2.556   .     S
Cu3336 Cu3675  2.556   .     S
Cu3336 Cu3676  2.556   .     S
Cu3337 Cu3338  2.556   .     S
Cu3337 Cu3339  2.556   .     S
Cu3337 Cu3357  2.556   .     S
Cu3337 Cu3360  2.556   .     S
Cu3337 Cu3362  2.556   .     S
Cu3337 Cu3438  2.556   .     S
Cu3337 Cu3439  2.556   .     S
Cu3337 Cu3442  2.556   .     S
Cu3337 Cu3461  2.556   .     S
Cu3338 Cu3339  2.556   .     S
Cu3338 Cu3420  2.556   .     S
Cu3338 Cu3421  2.556   .     S
Cu3338 Cu3439  2.556   .     S
Cu3338 Cu3442  2.556   .     S
Cu3339 Cu3340  2.556   .     S
Cu3339 Cu3360  2.556   .     S
Cu3339 Cu3362  2.556   .     S
Cu3339 Cu3659  2.556   .     S
Cu3339 Cu3675  2.556   .     S
Cu3339 Cu3676  2.556   .     S
Cu3339 Cu3698  2.556   .     S
Cu3340 Cu3341  2.556   .     S
Cu3340 Cu3342  2.556   .     S
Cu3340 Cu3343  2.556   .     S
Cu3340 Cu3362  2.556   .     S
Cu3340 Cu3363  2.556   .     S
Cu3340 Cu3659  2.556   .     S
Cu3340 Cu3679  2.556   .     S
Cu3340 Cu3680  2.556   .     S
Cu3340 Cu3698  2.556   .     S
Cu3341 Cu3342  2.556   .     S
Cu3341 Cu3343  2.556   .     S
Cu3341 Cu3362  2.556   .     S
Cu3341 Cu3363  2.556   .     S
Cu3341 Cu3364  2.556   .     S
Cu3341 Cu3366  2.556   .     S
Cu3341 Cu3384  2.556   .     S
Cu3341 Cu3443  2.556   .     S
Cu3341 Cu3446  2.556   .     S
Cu3341 Cu3464  2.556   .     S
Cu3341 Cu3465  2.556   .     S
Cu3342 Cu3343  2.556   .     S
Cu3342 Cu3344  2.556   .     S
Cu3342 Cu3345  2.556   .     S
Cu3342 Cu3424  2.556   .     S
Cu3342 Cu3443  2.556   .     S
Cu3342 Cu3446  2.556   .     S
Cu3342 Cu3447  2.556   .     S
Cu3343 Cu3344  2.556   .     S
Cu3343 Cu3345  2.556   .     S
Cu3343 Cu3364  2.556   .     S
Cu3343 Cu3366  2.556   .     S
Cu3343 Cu3368  2.556   .     S
Cu3343 Cu3679  2.556   .     S
Cu3343 Cu3680  2.556   .     S
Cu3343 Cu3683  2.556   .     S
Cu3343 Cu3702  2.556   .     S
Cu3344 Cu3345  2.556   .     S
Cu3344 Cu3346  2.556   .     S
Cu3344 Cu3347  2.556   .     S
Cu3344 Cu3663  2.556   .     S
Cu3344 Cu3680  2.556   .     S
Cu3344 Cu3683  2.556   .     S
Cu3344 Cu3684  2.556   .     S
Cu3345 Cu3346  2.556   .     S
Cu3345 Cu3347  2.556   .     S
Cu3345 Cu3366  2.556   .     S
Cu3345 Cu3368  2.556   .     S
Cu3345 Cu3370  2.556   .     S
Cu3345 Cu3446  2.556   .     S
Cu3345 Cu3447  2.556   .     S
Cu3345 Cu3450  2.556   .     S
Cu3345 Cu3469  2.556   .     S
Cu3346 Cu3347  2.556   .     S
Cu3346 Cu3348  2.556   .     S
Cu3346 Cu3349  2.556   .     S
Cu3346 Cu3428  2.556   .     S
Cu3346 Cu3447  2.556   .     S
Cu3346 Cu3450  2.556   .     S
Cu3346 Cu3451  2.556   .     S
Cu3347 Cu3348  2.556   .     S
Cu3347 Cu3349  2.556   .     S
Cu3347 Cu3368  2.556   .     S
Cu3347 Cu3370  2.556   .     S
Cu3347 Cu3372  2.556   .     S
Cu3347 Cu3683  2.556   .     S
Cu3347 Cu3684  2.556   .     S
Cu3347 Cu3687  2.556   .     S
Cu3347 Cu3706  2.556   .     S
Cu3348 Cu3349  2.556   .     S
Cu3348 Cu3351  2.556   .     S
Cu3348 Cu3352  2.556   .     S
Cu3348 Cu3667  2.556   .     S
Cu3348 Cu3684  2.556   .     S
Cu3348 Cu3687  2.556   .     S
Cu3348 Cu3688  2.556   .     S
Cu3349 Cu3351  2.556   .     S
Cu3349 Cu3352  2.556   .     S
Cu3349 Cu3370  2.556   .     S
Cu3349 Cu3372  2.556   .     S
Cu3349 Cu3374  2.556   .     S
Cu3349 Cu3450  2.556   .     S
Cu3349 Cu3451  2.556   .     S
Cu3349 Cu3454  2.556   .     S
Cu3349 Cu3473  2.556   .     S
Cu3350 Cu3353  2.556   .     S
Cu3350 Cu3355  2.556   .     S
Cu3350 Cu3455  2.556   .     S
Cu3351 Cu3352  2.556   .     S
Cu3351 Cu3354  2.556   .     S
Cu3351 Cu3356  2.556   .     S
Cu3351 Cu3432  2.556   .     S
Cu3351 Cu3451  2.556   .     S
Cu3351 Cu3454  2.556   .     S
Cu3351 Cu3456  2.556   .     S
Cu3352 Cu3354  2.556   .     S
Cu3352 Cu3356  2.556   .     S
Cu3352 Cu3372  2.556   .     S
Cu3352 Cu3374  2.556   .     S
Cu3352 Cu3377  2.556   .     S
Cu3352 Cu3687  2.556   .     S
Cu3352 Cu3688  2.556   .     S
Cu3352 Cu3693  2.556   .     S
Cu3352 Cu3710  2.556   .     S
Cu3353 Cu3355  2.556   .     S
Cu3353 Cu3357  2.556   .     S
Cu3353 Cu3359  2.556   .     S
Cu3353 Cu3670  2.556   .     S
Cu3353 Cu3692  2.556   .     S
Cu3353 Cu3694  2.556   .     S
Cu3354 Cu3356  2.556   .     S
Cu3354 Cu3358  2.556   .     S
Cu3354 Cu3671  2.556   .     S
Cu3354 Cu3688  2.556   .     S
Cu3354 Cu3693  2.556   .     S
Cu3355 Cu3357  2.556   .     S
Cu3355 Cu3359  2.556   .     S
Cu3355 Cu3376  2.556   .     S
Cu3355 Cu3380  2.556   .     S
Cu3355 Cu3455  2.556   .     S
Cu3355 Cu3460  2.556   .     S
Cu3355 Cu3477  2.556   .     S
Cu3356 Cu3358  2.556   .     S
Cu3356 Cu3374  2.556   .     S
Cu3356 Cu3377  2.556   .     S
Cu3356 Cu3454  2.556   .     S
Cu3356 Cu3456  2.556   .     S
Cu3356 Cu3478  2.556   .     S
Cu3357 Cu3359  2.556   .     S
Cu3357 Cu3360  2.556   .     S
Cu3357 Cu3361  2.556   .     S
Cu3357 Cu3438  2.556   .     S
Cu3357 Cu3455  2.556   .     S
Cu3357 Cu3460  2.556   .     S
Cu3357 Cu3461  2.556   .     S
Cu3358 Cu3456  2.556   .     S
Cu3359 Cu3360  2.556   .     S
Cu3359 Cu3361  2.556   .     S
Cu3359 Cu3376  2.556   .     S
Cu3359 Cu3380  2.556   .     S
Cu3359 Cu3382  2.556   .     S
Cu3359 Cu3692  2.556   .     S
Cu3359 Cu3694  2.556   .     S
Cu3359 Cu3697  2.556   .     S
Cu3359 Cu3712  2.556   .     S
Cu3360 Cu3361  2.556   .     S
Cu3360 Cu3362  2.556   .     S
Cu3360 Cu3363  2.556   .     S
Cu3360 Cu3675  2.556   .     S
Cu3360 Cu3694  2.556   .     S
Cu3360 Cu3697  2.556   .     S
Cu3360 Cu3698  2.556   .     S
Cu3361 Cu3362  2.556   .     S
Cu3361 Cu3363  2.556   .     S
Cu3361 Cu3380  2.556   .     S
Cu3361 Cu3382  2.556   .     S
Cu3361 Cu3384  2.556   .     S
Cu3361 Cu3460  2.556   .     S
Cu3361 Cu3461  2.556   .     S
Cu3361 Cu3464  2.556   .     S
Cu3361 Cu3481  2.556   .     S
Cu3362 Cu3363  2.556   .     S
Cu3362 Cu3442  2.556   .     S
Cu3362 Cu3443  2.556   .     S
Cu3362 Cu3461  2.556   .     S
Cu3362 Cu3464  2.556   .     S
Cu3363 Cu3364  2.556   .     S
Cu3363 Cu3382  2.556   .     S
Cu3363 Cu3384  2.556   .     S
Cu3363 Cu3679  2.556   .     S
Cu3363 Cu3697  2.556   .     S
Cu3363 Cu3698  2.556   .     S
Cu3363 Cu3716  2.556   .     S
Cu3364 Cu3365  2.556   .     S
Cu3364 Cu3366  2.556   .     S
Cu3364 Cu3367  2.556   .     S
Cu3364 Cu3384  2.556   .     S
Cu3364 Cu3385  2.556   .     S
Cu3364 Cu3679  2.556   .     S
Cu3364 Cu3701  2.556   .     S
Cu3364 Cu3702  2.556   .     S
Cu3364 Cu3716  2.556   .     S
Cu3365 Cu3366  2.556   .     S
Cu3365 Cu3367  2.556   .     S
Cu3365 Cu3384  2.556   .     S
Cu3365 Cu3385  2.556   .     S
Cu3365 Cu3386  2.556   .     S
Cu3365 Cu3465  2.556   .     S
Cu3365 Cu3468  2.556   .     S
Cu3365 Cu3484  2.556   .     S
Cu3366 Cu3367  2.556   .     S
Cu3366 Cu3368  2.556   .     S
Cu3366 Cu3369  2.556   .     S
Cu3366 Cu3446  2.556   .     S
Cu3366 Cu3465  2.556   .     S
Cu3366 Cu3468  2.556   .     S
Cu3366 Cu3469  2.556   .     S
Cu3367 Cu3368  2.556   .     S
Cu3367 Cu3369  2.556   .     S
Cu3367 Cu3630  2.556   .     S
Cu3367 Cu3701  2.556   .     S
Cu3367 Cu3702  2.556   .     S
Cu3367 Cu3705  2.556   .     S
Cu3368 Cu3369  2.556   .     S
Cu3368 Cu3370  2.556   .     S
Cu3368 Cu3371  2.556   .     S
Cu3368 Cu3683  2.556   .     S
Cu3368 Cu3702  2.556   .     S
Cu3368 Cu3705  2.556   .     S
Cu3368 Cu3706  2.556   .     S
Cu3369 Cu3370  2.556   .     S
Cu3369 Cu3371  2.556   .     S
Cu3369 Cu3392  2.556   .     S
Cu3369 Cu3468  2.556   .     S
Cu3369 Cu3469  2.556   .     S
Cu3369 Cu3472  2.556   .     S
Cu3370 Cu3371  2.556   .     S
Cu3370 Cu3372  2.556   .     S
Cu3370 Cu3373  2.556   .     S
Cu3370 Cu3450  2.556   .     S
Cu3370 Cu3469  2.556   .     S
Cu3370 Cu3472  2.556   .     S
Cu3370 Cu3473  2.556   .     S
Cu3371 Cu3372  2.556   .     S
Cu3371 Cu3373  2.556   .     S
Cu3371 Cu3636  2.556   .     S
Cu3371 Cu3705  2.556   .     S
Cu3371 Cu3706  2.556   .     S
Cu3371 Cu3709  2.556   .     S
Cu3372 Cu3373  2.556   .     S
Cu3372 Cu3374  2.556   .     S
Cu3372 Cu3375  2.556   .     S
Cu3372 Cu3687  2.556   .     S
Cu3372 Cu3706  2.556   .     S
Cu3372 Cu3709  2.556   .     S
Cu3372 Cu3710  2.556   .     S
Cu3373 Cu3374  2.556   .     S
Cu3373 Cu3375  2.556   .     S
Cu3373 Cu3398  2.556   .     S
Cu3373 Cu3472  2.556   .     S
Cu3373 Cu3473  2.556   .     S
Cu3373 Cu3476  2.556   .     S
Cu3374 Cu3375  2.556   .     S
Cu3374 Cu3377  2.556   .     S
Cu3374 Cu3379  2.556   .     S
Cu3374 Cu3454  2.556   .     S
Cu3374 Cu3473  2.556   .     S
Cu3374 Cu3476  2.556   .     S
Cu3374 Cu3478  2.556   .     S
Cu3375 Cu3377  2.556   .     S
Cu3375 Cu3379  2.556   .     S
Cu3375 Cu3638  2.556   .     S
Cu3375 Cu3709  2.556   .     S
Cu3375 Cu3710  2.556   .     S
Cu3376 Cu3378  2.556   .     S
Cu3376 Cu3380  2.556   .     S
Cu3376 Cu3381  2.556   .     S
Cu3376 Cu3692  2.556   .     S
Cu3376 Cu3712  2.556   .     S
Cu3377 Cu3379  2.556   .     S
Cu3377 Cu3693  2.556   .     S
Cu3377 Cu3710  2.556   .     S
Cu3378 Cu3380  2.556   .     S
Cu3378 Cu3381  2.556   .     S
Cu3378 Cu3477  2.556   .     S
Cu3378 Cu3480  2.556   .     S
Cu3379 Cu3476  2.556   .     S
Cu3379 Cu3478  2.556   .     S
Cu3380 Cu3381  2.556   .     S
Cu3380 Cu3382  2.556   .     S
Cu3380 Cu3383  2.556   .     S
Cu3380 Cu3460  2.556   .     S
Cu3380 Cu3477  2.556   .     S
Cu3380 Cu3480  2.556   .     S
Cu3380 Cu3481  2.556   .     S
Cu3381 Cu3382  2.556   .     S
Cu3381 Cu3383  2.556   .     S
Cu3381 Cu3639  2.556   .     S
Cu3381 Cu3712  2.556   .     S
Cu3381 Cu3715  2.556   .     S
Cu3382 Cu3383  2.556   .     S
Cu3382 Cu3384  2.556   .     S
Cu3382 Cu3385  2.556   .     S
Cu3382 Cu3697  2.556   .     S
Cu3382 Cu3712  2.556   .     S
Cu3382 Cu3715  2.556   .     S
Cu3382 Cu3716  2.556   .     S
Cu3383 Cu3384  2.556   .     S
Cu3383 Cu3385  2.556   .     S
Cu3383 Cu3399  2.556   .     S
Cu3383 Cu3480  2.556   .     S
Cu3383 Cu3481  2.556   .     S
Cu3383 Cu3484  2.556   .     S
Cu3384 Cu3385  2.556   .     S
Cu3384 Cu3464  2.556   .     S
Cu3384 Cu3465  2.556   .     S
Cu3384 Cu3481  2.556   .     S
Cu3384 Cu3484  2.556   .     S
Cu3385 Cu3641  2.556   .     S
Cu3385 Cu3701  2.556   .     S
Cu3385 Cu3715  2.556   .     S
Cu3385 Cu3716  2.556   .     S
Cu3386 Cu3388  2.556   .     S
Cu3386 Cu3389  2.556   .     S
Cu3386 Cu3391  2.556   .     S
Cu3386 Cu3400  2.556   .     S
Cu3386 Cu3402  2.556   .     S
Cu3386 Cu3466  2.556   .     S
Cu3386 Cu3468  2.556   .     S
Cu3386 Cu3484  2.556   .     S
Cu3387 Cu3390  2.556   .     S
Cu3387 Cu3401  2.556   .     S
Cu3387 Cu3403  2.556   .     S
Cu3387 Cu3405  2.556   .     S
Cu3387 Cu3419  2.556   .     S
Cu3387 Cu3487  2.556   .     S
Cu3387 Cu3493  2.556   .     S
Cu3388 Cu3389  2.556   .     S
Cu3388 Cu3391  2.556   .     S
Cu3388 Cu3400  2.556   .     S
Cu3388 Cu3402  2.556   .     S
Cu3388 Cu3485  2.556   .     S
Cu3388 Cu3488  2.556   .     S
Cu3389 Cu3391  2.556   .     S
Cu3389 Cu3392  2.556   .     S
Cu3389 Cu3394  2.556   .     S
Cu3389 Cu3466  2.556   .     S
Cu3389 Cu3468  2.556   .     S
Cu3389 Cu3470  2.556   .     S
Cu3389 Cu3485  2.556   .     S
Cu3389 Cu3488  2.556   .     S
Cu3389 Cu3489  2.556   .     S
Cu3389 Cu3549  2.556   .     S
Cu3390 Cu3393  2.556   .     S
Cu3390 Cu3403  2.556   .     S
Cu3390 Cu3405  2.556   .     S
Cu3390 Cu3407  2.556   .     S
Cu3391 Cu3392  2.556   .     S
Cu3391 Cu3394  2.556   .     S
Cu3392 Cu3394  2.556   .     S
Cu3392 Cu3395  2.556   .     S
Cu3392 Cu3397  2.556   .     S
Cu3392 Cu3468  2.556   .     S
Cu3392 Cu3470  2.556   .     S
Cu3392 Cu3472  2.556   .     S
Cu3393 Cu3396  2.556   .     S
Cu3393 Cu3405  2.556   .     S
Cu3393 Cu3407  2.556   .     S
Cu3393 Cu3409  2.556   .     S
Cu3393 Cu3487  2.556   .     S
Cu3393 Cu3497  2.556   .     S
Cu3394 Cu3395  2.556   .     S
Cu3394 Cu3397  2.556   .     S
Cu3394 Cu3488  2.556   .     S
Cu3394 Cu3489  2.556   .     S
Cu3395 Cu3397  2.556   .     S
Cu3395 Cu3398  2.556   .     S
Cu3395 Cu3470  2.556   .     S
Cu3395 Cu3472  2.556   .     S
Cu3395 Cu3474  2.556   .     S
Cu3395 Cu3489  2.556   .     S
Cu3395 Cu3490  2.556   .     S
Cu3395 Cu3553  2.556   .     S
Cu3396 Cu3407  2.556   .     S
Cu3396 Cu3409  2.556   .     S
Cu3396 Cu3411  2.556   .     S
Cu3397 Cu3398  2.556   .     S
Cu3398 Cu3472  2.556   .     S
Cu3398 Cu3474  2.556   .     S
Cu3398 Cu3476  2.556   .     S
Cu3399 Cu3400  2.556   .     S
Cu3399 Cu3402  2.556   .     S
Cu3399 Cu3480  2.556   .     S
Cu3399 Cu3482  2.556   .     S
Cu3399 Cu3484  2.556   .     S
Cu3400 Cu3402  2.556   .     S
Cu3400 Cu3466  2.556   .     S
Cu3400 Cu3482  2.556   .     S
Cu3400 Cu3484  2.556   .     S
Cu3400 Cu3485  2.556   .     S
Cu3400 Cu3491  2.556   .     S
Cu3400 Cu3561  2.556   .     S
Cu3401 Cu3403  2.556   .     S
Cu3401 Cu3417  2.556   .     S
Cu3401 Cu3419  2.556   .     S
Cu3403 Cu3404  2.556   .     S
Cu3403 Cu3405  2.556   .     S
Cu3403 Cu3406  2.556   .     S
Cu3403 Cu3419  2.556   .     S
Cu3403 Cu3420  2.556   .     S
Cu3404 Cu3405  2.556   .     S
Cu3404 Cu3406  2.556   .     S
Cu3404 Cu3419  2.556   .     S
Cu3404 Cu3420  2.556   .     S
Cu3404 Cu3421  2.556   .     S
Cu3404 Cu3423  2.556   .     S
Cu3404 Cu3441  2.556   .     S
Cu3404 Cu3493  2.556   .     S
Cu3404 Cu3496  2.556   .     S
Cu3404 Cu3507  2.556   .     S
Cu3404 Cu3508  2.556   .     S
Cu3405 Cu3406  2.556   .     S
Cu3405 Cu3407  2.556   .     S
Cu3405 Cu3408  2.556   .     S
Cu3405 Cu3487  2.556   .     S
Cu3405 Cu3493  2.556   .     S
Cu3405 Cu3496  2.556   .     S
Cu3405 Cu3497  2.556   .     S
Cu3406 Cu3407  2.556   .     S
Cu3406 Cu3408  2.556   .     S
Cu3406 Cu3421  2.556   .     S
Cu3406 Cu3423  2.556   .     S
Cu3406 Cu3425  2.556   .     S
Cu3407 Cu3408  2.556   .     S
Cu3407 Cu3409  2.556   .     S
Cu3407 Cu3410  2.556   .     S
Cu3408 Cu3409  2.556   .     S
Cu3408 Cu3410  2.556   .     S
Cu3408 Cu3423  2.556   .     S
Cu3408 Cu3425  2.556   .     S
Cu3408 Cu3427  2.556   .     S
Cu3408 Cu3496  2.556   .     S
Cu3408 Cu3497  2.556   .     S
Cu3408 Cu3500  2.556   .     S
Cu3408 Cu3512  2.556   .     S
Cu3409 Cu3410  2.556   .     S
Cu3409 Cu3411  2.556   .     S
Cu3409 Cu3412  2.556   .     S
Cu3409 Cu3497  2.556   .     S
Cu3409 Cu3500  2.556   .     S
Cu3409 Cu3501  2.556   .     S
Cu3410 Cu3411  2.556   .     S
Cu3410 Cu3412  2.556   .     S
Cu3410 Cu3425  2.556   .     S
Cu3410 Cu3427  2.556   .     S
Cu3410 Cu3429  2.556   .     S
Cu3411 Cu3412  2.556   .     S
Cu3411 Cu3413  2.556   .     S
Cu3411 Cu3414  2.556   .     S
Cu3412 Cu3413  2.556   .     S
Cu3412 Cu3414  2.556   .     S
Cu3412 Cu3427  2.556   .     S
Cu3412 Cu3429  2.556   .     S
Cu3412 Cu3431  2.556   .     S
Cu3412 Cu3500  2.556   .     S
Cu3412 Cu3501  2.556   .     S
Cu3412 Cu3503  2.556   .     S
Cu3412 Cu3516  2.556   .     S
Cu3413 Cu3414  2.556   .     S
Cu3413 Cu3501  2.556   .     S
Cu3413 Cu3503  2.556   .     S
Cu3414 Cu3429  2.556   .     S
Cu3414 Cu3431  2.556   .     S
Cu3414 Cu3434  2.556   .     S
Cu3415 Cu3416  2.556   .     S
Cu3415 Cu3417  2.556   .     S
Cu3415 Cu3418  2.556   .     S
Cu3415 Cu3504  2.556   .     S
Cu3415 Cu3505  2.556   .     S
Cu3416 Cu3417  2.556   .     S
Cu3416 Cu3418  2.556   .     S
Cu3416 Cu3433  2.556   .     S
Cu3416 Cu3437  2.556   .     S
Cu3416 Cu3439  2.556   .     S
Cu3417 Cu3418  2.556   .     S
Cu3417 Cu3419  2.556   .     S
Cu3417 Cu3420  2.556   .     S
Cu3418 Cu3419  2.556   .     S
Cu3418 Cu3420  2.556   .     S
Cu3418 Cu3437  2.556   .     S
Cu3418 Cu3439  2.556   .     S
Cu3418 Cu3441  2.556   .     S
Cu3418 Cu3504  2.556   .     S
Cu3418 Cu3505  2.556   .     S
Cu3418 Cu3507  2.556   .     S
Cu3418 Cu3521  2.556   .     S
Cu3419 Cu3420  2.556   .     S
Cu3419 Cu3493  2.556   .     S
Cu3419 Cu3505  2.556   .     S
Cu3419 Cu3507  2.556   .     S
Cu3420 Cu3421  2.556   .     S
Cu3420 Cu3439  2.556   .     S
Cu3420 Cu3441  2.556   .     S
Cu3421 Cu3422  2.556   .     S
Cu3421 Cu3423  2.556   .     S
Cu3421 Cu3424  2.556   .     S
Cu3421 Cu3441  2.556   .     S
Cu3421 Cu3442  2.556   .     S
Cu3422 Cu3423  2.556   .     S
Cu3422 Cu3424  2.556   .     S
Cu3422 Cu3441  2.556   .     S
Cu3422 Cu3442  2.556   .     S
Cu3422 Cu3443  2.556   .     S
Cu3422 Cu3445  2.556   .     S
Cu3422 Cu3463  2.556   .     S
Cu3422 Cu3508  2.556   .     S
Cu3422 Cu3511  2.556   .     S
Cu3422 Cu3524  2.556   .     S
Cu3422 Cu3525  2.556   .     S
Cu3423 Cu3424  2.556   .     S
Cu3423 Cu3425  2.556   .     S
Cu3423 Cu3426  2.556   .     S
Cu3423 Cu3496  2.556   .     S
Cu3423 Cu3508  2.556   .     S
Cu3423 Cu3511  2.556   .     S
Cu3423 Cu3512  2.556   .     S
Cu3424 Cu3425  2.556   .     S
Cu3424 Cu3426  2.556   .     S
Cu3424 Cu3443  2.556   .     S
Cu3424 Cu3445  2.556   .     S
Cu3424 Cu3447  2.556   .     S
Cu3425 Cu3426  2.556   .     S
Cu3425 Cu3427  2.556   .     S
Cu3425 Cu3428  2.556   .     S
Cu3426 Cu3427  2.556   .     S
Cu3426 Cu3428  2.556   .     S
Cu3426 Cu3445  2.556   .     S
Cu3426 Cu3447  2.556   .     S
Cu3426 Cu3449  2.556   .     S
Cu3426 Cu3511  2.556   .     S
Cu3426 Cu3512  2.556   .     S
Cu3426 Cu3515  2.556   .     S
Cu3426 Cu3530  2.556   .     S
Cu3427 Cu3428  2.556   .     S
Cu3427 Cu3429  2.556   .     S
Cu3427 Cu3430  2.556   .     S
Cu3427 Cu3500  2.556   .     S
Cu3427 Cu3512  2.556   .     S
Cu3427 Cu3515  2.556   .     S
Cu3427 Cu3516  2.556   .     S
Cu3428 Cu3429  2.556   .     S
Cu3428 Cu3430  2.556   .     S
Cu3428 Cu3447  2.556   .     S
Cu3428 Cu3449  2.556   .     S
Cu3428 Cu3451  2.556   .     S
Cu3429 Cu3430  2.556   .     S
Cu3429 Cu3431  2.556   .     S
Cu3429 Cu3432  2.556   .     S
Cu3430 Cu3431  2.556   .     S
Cu3430 Cu3432  2.556   .     S
Cu3430 Cu3449  2.556   .     S
Cu3430 Cu3451  2.556   .     S
Cu3430 Cu3453  2.556   .     S
Cu3430 Cu3515  2.556   .     S
Cu3430 Cu3516  2.556   .     S
Cu3430 Cu3519  2.556   .     S
Cu3430 Cu3534  2.556   .     S
Cu3431 Cu3432  2.556   .     S
Cu3431 Cu3434  2.556   .     S
Cu3431 Cu3436  2.556   .     S
Cu3431 Cu3503  2.556   .     S
Cu3431 Cu3516  2.556   .     S
Cu3431 Cu3519  2.556   .     S
Cu3432 Cu3434  2.556   .     S
Cu3432 Cu3436  2.556   .     S
Cu3432 Cu3451  2.556   .     S
Cu3432 Cu3453  2.556   .     S
Cu3432 Cu3456  2.556   .     S
Cu3433 Cu3435  2.556   .     S
Cu3433 Cu3437  2.556   .     S
Cu3433 Cu3438  2.556   .     S
Cu3434 Cu3436  2.556   .     S
Cu3435 Cu3437  2.556   .     S
Cu3435 Cu3438  2.556   .     S
Cu3435 Cu3455  2.556   .     S
Cu3435 Cu3459  2.556   .     S
Cu3435 Cu3520  2.556   .     S
Cu3435 Cu3538  2.556   .     S
Cu3436 Cu3453  2.556   .     S
Cu3436 Cu3456  2.556   .     S
Cu3436 Cu3519  2.556   .     S
Cu3436 Cu3539  2.556   .     S
Cu3437 Cu3438  2.556   .     S
Cu3437 Cu3439  2.556   .     S
Cu3437 Cu3440  2.556   .     S
Cu3437 Cu3504  2.556   .     S
Cu3437 Cu3520  2.556   .     S
Cu3437 Cu3521  2.556   .     S
Cu3438 Cu3439  2.556   .     S
Cu3438 Cu3440  2.556   .     S
Cu3438 Cu3455  2.556   .     S
Cu3438 Cu3459  2.556   .     S
Cu3438 Cu3461  2.556   .     S
Cu3439 Cu3440  2.556   .     S
Cu3439 Cu3441  2.556   .     S
Cu3439 Cu3442  2.556   .     S
Cu3440 Cu3441  2.556   .     S
Cu3440 Cu3442  2.556   .     S
Cu3440 Cu3459  2.556   .     S
Cu3440 Cu3461  2.556   .     S
Cu3440 Cu3463  2.556   .     S
Cu3440 Cu3520  2.556   .     S
Cu3440 Cu3521  2.556   .     S
Cu3440 Cu3524  2.556   .     S
Cu3440 Cu3542  2.556   .     S
Cu3441 Cu3442  2.556   .     S
Cu3441 Cu3507  2.556   .     S
Cu3441 Cu3508  2.556   .     S
Cu3441 Cu3521  2.556   .     S
Cu3441 Cu3524  2.556   .     S
Cu3442 Cu3443  2.556   .     S
Cu3442 Cu3461  2.556   .     S
Cu3442 Cu3463  2.556   .     S
Cu3443 Cu3444  2.556   .     S
Cu3443 Cu3445  2.556   .     S
Cu3443 Cu3446  2.556   .     S
Cu3443 Cu3463  2.556   .     S
Cu3443 Cu3464  2.556   .     S
Cu3444 Cu3445  2.556   .     S
Cu3444 Cu3446  2.556   .     S
Cu3444 Cu3463  2.556   .     S
Cu3444 Cu3464  2.556   .     S
Cu3444 Cu3465  2.556   .     S
Cu3444 Cu3467  2.556   .     S
Cu3444 Cu3483  2.556   .     S
Cu3444 Cu3525  2.556   .     S
Cu3444 Cu3529  2.556   .     S
Cu3444 Cu3545  2.556   .     S
Cu3444 Cu3546  2.556   .     S
Cu3445 Cu3446  2.556   .     S
Cu3445 Cu3447  2.556   .     S
Cu3445 Cu3448  2.556   .     S
Cu3445 Cu3511  2.556   .     S
Cu3445 Cu3525  2.556   .     S
Cu3445 Cu3529  2.556   .     S
Cu3445 Cu3530  2.556   .     S
Cu3446 Cu3447  2.556   .     S
Cu3446 Cu3448  2.556   .     S
Cu3446 Cu3465  2.556   .     S
Cu3446 Cu3467  2.556   .     S
Cu3446 Cu3469  2.556   .     S
Cu3447 Cu3448  2.556   .     S
Cu3447 Cu3449  2.556   .     S
Cu3447 Cu3450  2.556   .     S
Cu3448 Cu3449  2.556   .     S
Cu3448 Cu3450  2.556   .     S
Cu3448 Cu3467  2.556   .     S
Cu3448 Cu3469  2.556   .     S
Cu3448 Cu3471  2.556   .     S
Cu3448 Cu3529  2.556   .     S
Cu3448 Cu3530  2.556   .     S
Cu3448 Cu3533  2.556   .     S
Cu3448 Cu3550  2.556   .     S
Cu3449 Cu3450  2.556   .     S
Cu3449 Cu3451  2.556   .     S
Cu3449 Cu3452  2.556   .     S
Cu3449 Cu3515  2.556   .     S
Cu3449 Cu3530  2.556   .     S
Cu3449 Cu3533  2.556   .     S
Cu3449 Cu3534  2.556   .     S
Cu3450 Cu3451  2.556   .     S
Cu3450 Cu3452  2.556   .     S
Cu3450 Cu3469  2.556   .     S
Cu3450 Cu3471  2.556   .     S
Cu3450 Cu3473  2.556   .     S
Cu3451 Cu3452  2.556   .     S
Cu3451 Cu3453  2.556   .     S
Cu3451 Cu3454  2.556   .     S
Cu3452 Cu3453  2.556   .     S
Cu3452 Cu3454  2.556   .     S
Cu3452 Cu3471  2.556   .     S
Cu3452 Cu3473  2.556   .     S
Cu3452 Cu3475  2.556   .     S
Cu3452 Cu3533  2.556   .     S
Cu3452 Cu3534  2.556   .     S
Cu3452 Cu3537  2.556   .     S
Cu3452 Cu3554  2.556   .     S
Cu3453 Cu3454  2.556   .     S
Cu3453 Cu3456  2.556   .     S
Cu3453 Cu3458  2.556   .     S
Cu3453 Cu3519  2.556   .     S
Cu3453 Cu3534  2.556   .     S
Cu3453 Cu3537  2.556   .     S
Cu3453 Cu3539  2.556   .     S
Cu3454 Cu3456  2.556   .     S
Cu3454 Cu3458  2.556   .     S
Cu3454 Cu3473  2.556   .     S
Cu3454 Cu3475  2.556   .     S
Cu3454 Cu3478  2.556   .     S
Cu3455 Cu3457  2.556   .     S
Cu3455 Cu3459  2.556   .     S
Cu3455 Cu3460  2.556   .     S
Cu3456 Cu3458  2.556   .     S
Cu3457 Cu3459  2.556   .     S
Cu3457 Cu3460  2.556   .     S
Cu3457 Cu3477  2.556   .     S
Cu3457 Cu3479  2.556   .     S
Cu3457 Cu3538  2.556   .     S
Cu3457 Cu3541  2.556   .     S
Cu3458 Cu3475  2.556   .     S
Cu3458 Cu3478  2.556   .     S
Cu3458 Cu3537  2.556   .     S
Cu3458 Cu3539  2.556   .     S
Cu3459 Cu3460  2.556   .     S
Cu3459 Cu3461  2.556   .     S
Cu3459 Cu3462  2.556   .     S
Cu3459 Cu3520  2.556   .     S
Cu3459 Cu3538  2.556   .     S
Cu3459 Cu3541  2.556   .     S
Cu3459 Cu3542  2.556   .     S
Cu3460 Cu3461  2.556   .     S
Cu3460 Cu3462  2.556   .     S
Cu3460 Cu3477  2.556   .     S
Cu3460 Cu3479  2.556   .     S
Cu3460 Cu3481  2.556   .     S
Cu3461 Cu3462  2.556   .     S
Cu3461 Cu3463  2.556   .     S
Cu3461 Cu3464  2.556   .     S
Cu3462 Cu3463  2.556   .     S
Cu3462 Cu3464  2.556   .     S
Cu3462 Cu3479  2.556   .     S
Cu3462 Cu3481  2.556   .     S
Cu3462 Cu3483  2.556   .     S
Cu3462 Cu3541  2.556   .     S
Cu3462 Cu3542  2.556   .     S
Cu3462 Cu3545  2.556   .     S
Cu3462 Cu3558  2.556   .     S
Cu3463 Cu3464  2.556   .     S
Cu3463 Cu3524  2.556   .     S
Cu3463 Cu3525  2.556   .     S
Cu3463 Cu3542  2.556   .     S
Cu3463 Cu3545  2.556   .     S
Cu3464 Cu3465  2.556   .     S
Cu3464 Cu3481  2.556   .     S
Cu3464 Cu3483  2.556   .     S
Cu3465 Cu3466  2.556   .     S
Cu3465 Cu3467  2.556   .     S
Cu3465 Cu3468  2.556   .     S
Cu3465 Cu3483  2.556   .     S
Cu3465 Cu3484  2.556   .     S
Cu3466 Cu3467  2.556   .     S
Cu3466 Cu3468  2.556   .     S
Cu3466 Cu3483  2.556   .     S
Cu3466 Cu3484  2.556   .     S
Cu3466 Cu3485  2.556   .     S
Cu3466 Cu3546  2.556   .     S
Cu3466 Cu3549  2.556   .     S
Cu3466 Cu3561  2.556   .     S
Cu3467 Cu3468  2.556   .     S
Cu3467 Cu3469  2.556   .     S
Cu3467 Cu3470  2.556   .     S
Cu3467 Cu3529  2.556   .     S
Cu3467 Cu3546  2.556   .     S
Cu3467 Cu3549  2.556   .     S
Cu3467 Cu3550  2.556   .     S
Cu3468 Cu3469  2.556   .     S
Cu3468 Cu3470  2.556   .     S
Cu3469 Cu3470  2.556   .     S
Cu3469 Cu3471  2.556   .     S
Cu3469 Cu3472  2.556   .     S
Cu3470 Cu3471  2.556   .     S
Cu3470 Cu3472  2.556   .     S
Cu3470 Cu3489  2.556   .     S
Cu3470 Cu3549  2.556   .     S
Cu3470 Cu3550  2.556   .     S
Cu3470 Cu3553  2.556   .     S
Cu3471 Cu3472  2.556   .     S
Cu3471 Cu3473  2.556   .     S
Cu3471 Cu3474  2.556   .     S
Cu3471 Cu3533  2.556   .     S
Cu3471 Cu3550  2.556   .     S
Cu3471 Cu3553  2.556   .     S
Cu3471 Cu3554  2.556   .     S
Cu3472 Cu3473  2.556   .     S
Cu3472 Cu3474  2.556   .     S
Cu3473 Cu3474  2.556   .     S
Cu3473 Cu3475  2.556   .     S
Cu3473 Cu3476  2.556   .     S
Cu3474 Cu3475  2.556   .     S
Cu3474 Cu3476  2.556   .     S
Cu3474 Cu3490  2.556   .     S
Cu3474 Cu3553  2.556   .     S
Cu3474 Cu3554  2.556   .     S
Cu3474 Cu3556  2.556   .     S
Cu3475 Cu3476  2.556   .     S
Cu3475 Cu3478  2.556   .     S
Cu3475 Cu3537  2.556   .     S
Cu3475 Cu3554  2.556   .     S
Cu3475 Cu3556  2.556   .     S
Cu3476 Cu3478  2.556   .     S
Cu3477 Cu3479  2.556   .     S
Cu3477 Cu3480  2.556   .     S
Cu3479 Cu3480  2.556   .     S
Cu3479 Cu3481  2.556   .     S
Cu3479 Cu3482  2.556   .     S
Cu3479 Cu3541  2.556   .     S
Cu3479 Cu3557  2.556   .     S
Cu3479 Cu3558  2.556   .     S
Cu3480 Cu3481  2.556   .     S
Cu3480 Cu3482  2.556   .     S
Cu3481 Cu3482  2.556   .     S
Cu3481 Cu3483  2.556   .     S
Cu3481 Cu3484  2.556   .     S
Cu3482 Cu3483  2.556   .     S
Cu3482 Cu3484  2.556   .     S
Cu3482 Cu3491  2.556   .     S
Cu3482 Cu3557  2.556   .     S
Cu3482 Cu3558  2.556   .     S
Cu3482 Cu3561  2.556   .     S
Cu3483 Cu3484  2.556   .     S
Cu3483 Cu3545  2.556   .     S
Cu3483 Cu3546  2.556   .     S
Cu3483 Cu3558  2.556   .     S
Cu3483 Cu3561  2.556   .     S
Cu3485 Cu3486  2.556   .     S
Cu3485 Cu3488  2.556   .     S
Cu3485 Cu3492  2.556   .     S
Cu3485 Cu3547  2.556   .     S
Cu3485 Cu3549  2.556   .     S
Cu3485 Cu3561  2.556   .     S
Cu3486 Cu3488  2.556   .     S
Cu3486 Cu3489  2.556   .     S
Cu3486 Cu3547  2.556   .     S
Cu3486 Cu3549  2.556   .     S
Cu3486 Cu3551  2.556   .     S
Cu3486 Cu3618  2.556   .     S
Cu3487 Cu3493  2.556   .     S
Cu3487 Cu3495  2.556   .     S
Cu3487 Cu3497  2.556   .     S
Cu3488 Cu3489  2.556   .     S
Cu3489 Cu3549  2.556   .     S
Cu3489 Cu3551  2.556   .     S
Cu3489 Cu3553  2.556   .     S
Cu3490 Cu3553  2.556   .     S
Cu3490 Cu3555  2.556   .     S
Cu3490 Cu3556  2.556   .     S
Cu3491 Cu3492  2.556   .     S
Cu3491 Cu3557  2.556   .     S
Cu3491 Cu3559  2.556   .     S
Cu3491 Cu3561  2.556   .     S
Cu3492 Cu3547  2.556   .     S
Cu3492 Cu3559  2.556   .     S
Cu3492 Cu3561  2.556   .     S
Cu3493 Cu3494  2.556   .     S
Cu3493 Cu3495  2.556   .     S
Cu3493 Cu3496  2.556   .     S
Cu3493 Cu3507  2.556   .     S
Cu3494 Cu3495  2.556   .     S
Cu3494 Cu3496  2.556   .     S
Cu3494 Cu3507  2.556   .     S
Cu3494 Cu3508  2.556   .     S
Cu3494 Cu3510  2.556   .     S
Cu3494 Cu3523  2.556   .     S
Cu3494 Cu3567  2.556   .     S
Cu3494 Cu3573  2.556   .     S
Cu3495 Cu3496  2.556   .     S
Cu3495 Cu3497  2.556   .     S
Cu3495 Cu3498  2.556   .     S
Cu3495 Cu3567  2.556   .     S
Cu3496 Cu3497  2.556   .     S
Cu3496 Cu3498  2.556   .     S
Cu3496 Cu3508  2.556   .     S
Cu3496 Cu3510  2.556   .     S
Cu3496 Cu3512  2.556   .     S
Cu3497 Cu3498  2.556   .     S
Cu3497 Cu3499  2.556   .     S
Cu3497 Cu3500  2.556   .     S
Cu3498 Cu3499  2.556   .     S
Cu3498 Cu3500  2.556   .     S
Cu3498 Cu3510  2.556   .     S
Cu3498 Cu3512  2.556   .     S
Cu3498 Cu3514  2.556   .     S
Cu3498 Cu3567  2.556   .     S
Cu3498 Cu3579  2.556   .     S
Cu3499 Cu3500  2.556   .     S
Cu3499 Cu3501  2.556   .     S
Cu3499 Cu3502  2.556   .     S
Cu3500 Cu3501  2.556   .     S
Cu3500 Cu3502  2.556   .     S
Cu3500 Cu3512  2.556   .     S
Cu3500 Cu3514  2.556   .     S
Cu3500 Cu3516  2.556   .     S
Cu3501 Cu3502  2.556   .     S
Cu3501 Cu3503  2.556   .     S
Cu3502 Cu3503  2.556   .     S
Cu3502 Cu3514  2.556   .     S
Cu3502 Cu3516  2.556   .     S
Cu3502 Cu3518  2.556   .     S
Cu3503 Cu3516  2.556   .     S
Cu3503 Cu3518  2.556   .     S
Cu3504 Cu3505  2.556   .     S
Cu3504 Cu3506  2.556   .     S
Cu3504 Cu3521  2.556   .     S
Cu3505 Cu3506  2.556   .     S
Cu3505 Cu3507  2.556   .     S
Cu3506 Cu3507  2.556   .     S
Cu3506 Cu3521  2.556   .     S
Cu3506 Cu3523  2.556   .     S
Cu3507 Cu3508  2.556   .     S
Cu3507 Cu3521  2.556   .     S
Cu3507 Cu3523  2.556   .     S
Cu3508 Cu3509  2.556   .     S
Cu3508 Cu3510  2.556   .     S
Cu3508 Cu3511  2.556   .     S
Cu3508 Cu3523  2.556   .     S
Cu3508 Cu3524  2.556   .     S
Cu3509 Cu3510  2.556   .     S
Cu3509 Cu3511  2.556   .     S
Cu3509 Cu3523  2.556   .     S
Cu3509 Cu3524  2.556   .     S
Cu3509 Cu3525  2.556   .     S
Cu3509 Cu3528  2.556   .     S
Cu3509 Cu3544  2.556   .     S
Cu3509 Cu3573  2.556   .     S
Cu3509 Cu3577  2.556   .     S
Cu3509 Cu3588  2.556   .     S
Cu3509 Cu3590  2.556   .     S
Cu3510 Cu3511  2.556   .     S
Cu3510 Cu3512  2.556   .     S
Cu3510 Cu3513  2.556   .     S
Cu3510 Cu3567  2.556   .     S
Cu3510 Cu3573  2.556   .     S
Cu3510 Cu3577  2.556   .     S
Cu3510 Cu3579  2.556   .     S
Cu3511 Cu3512  2.556   .     S
Cu3511 Cu3513  2.556   .     S
Cu3511 Cu3525  2.556   .     S
Cu3511 Cu3528  2.556   .     S
Cu3511 Cu3530  2.556   .     S
Cu3512 Cu3513  2.556   .     S
Cu3512 Cu3514  2.556   .     S
Cu3512 Cu3515  2.556   .     S
Cu3513 Cu3514  2.556   .     S
Cu3513 Cu3515  2.556   .     S
Cu3513 Cu3528  2.556   .     S
Cu3513 Cu3530  2.556   .     S
Cu3513 Cu3532  2.556   .     S
Cu3513 Cu3577  2.556   .     S
Cu3513 Cu3579  2.556   .     S
Cu3513 Cu3583  2.556   .     S
Cu3513 Cu3597  2.556   .     S
Cu3514 Cu3515  2.556   .     S
Cu3514 Cu3516  2.556   .     S
Cu3514 Cu3517  2.556   .     S
Cu3514 Cu3579  2.556   .     S
Cu3514 Cu3583  2.556   .     S
Cu3515 Cu3516  2.556   .     S
Cu3515 Cu3517  2.556   .     S
Cu3515 Cu3530  2.556   .     S
Cu3515 Cu3532  2.556   .     S
Cu3515 Cu3534  2.556   .     S
Cu3516 Cu3517  2.556   .     S
Cu3516 Cu3518  2.556   .     S
Cu3516 Cu3519  2.556   .     S
Cu3517 Cu3518  2.556   .     S
Cu3517 Cu3519  2.556   .     S
Cu3517 Cu3532  2.556   .     S
Cu3517 Cu3534  2.556   .     S
Cu3517 Cu3536  2.556   .     S
Cu3517 Cu3583  2.556   .     S
Cu3517 Cu3603  2.556   .     S
Cu3518 Cu3519  2.556   .     S
Cu3519 Cu3534  2.556   .     S
Cu3519 Cu3536  2.556   .     S
Cu3519 Cu3539  2.556   .     S
Cu3520 Cu3521  2.556   .     S
Cu3520 Cu3522  2.556   .     S
Cu3520 Cu3538  2.556   .     S
Cu3520 Cu3540  2.556   .     S
Cu3520 Cu3542  2.556   .     S
Cu3521 Cu3522  2.556   .     S
Cu3521 Cu3523  2.556   .     S
Cu3521 Cu3524  2.556   .     S
Cu3522 Cu3523  2.556   .     S
Cu3522 Cu3524  2.556   .     S
Cu3522 Cu3540  2.556   .     S
Cu3522 Cu3542  2.556   .     S
Cu3522 Cu3544  2.556   .     S
Cu3522 Cu3588  2.556   .     S
Cu3522 Cu3608  2.556   .     S
Cu3523 Cu3524  2.556   .     S
Cu3523 Cu3573  2.556   .     S
Cu3523 Cu3588  2.556   .     S
Cu3524 Cu3525  2.556   .     S
Cu3524 Cu3542  2.556   .     S
Cu3524 Cu3544  2.556   .     S
Cu3525 Cu3526  2.556   .     S
Cu3525 Cu3528  2.556   .     S
Cu3525 Cu3529  2.556   .     S
Cu3525 Cu3544  2.556   .     S
Cu3525 Cu3545  2.556   .     S
Cu3526 Cu3528  2.556   .     S
Cu3526 Cu3529  2.556   .     S
Cu3526 Cu3544  2.556   .     S
Cu3526 Cu3545  2.556   .     S
Cu3526 Cu3546  2.556   .     S
Cu3526 Cu3548  2.556   .     S
Cu3526 Cu3560  2.556   .     S
Cu3526 Cu3590  2.556   .     S
Cu3526 Cu3595  2.556   .     S
Cu3526 Cu3612  2.556   .     S
Cu3526 Cu3614  2.556   .     S
Cu3527 Cu3576  2.556   .     S
Cu3527 Cu3589  2.556   .     S
Cu3527 Cu3594  2.556   .     S
Cu3527 Cu3596  2.556   .     S
Cu3528 Cu3529  2.556   .     S
Cu3528 Cu3530  2.556   .     S
Cu3528 Cu3531  2.556   .     S
Cu3528 Cu3577  2.556   .     S
Cu3528 Cu3590  2.556   .     S
Cu3528 Cu3595  2.556   .     S
Cu3528 Cu3597  2.556   .     S
Cu3529 Cu3530  2.556   .     S
Cu3529 Cu3531  2.556   .     S
Cu3529 Cu3546  2.556   .     S
Cu3529 Cu3548  2.556   .     S
Cu3529 Cu3550  2.556   .     S
Cu3530 Cu3531  2.556   .     S
Cu3530 Cu3532  2.556   .     S
Cu3530 Cu3533  2.556   .     S
Cu3531 Cu3532  2.556   .     S
Cu3531 Cu3533  2.556   .     S
Cu3531 Cu3548  2.556   .     S
Cu3531 Cu3550  2.556   .     S
Cu3531 Cu3552  2.556   .     S
Cu3531 Cu3595  2.556   .     S
Cu3531 Cu3597  2.556   .     S
Cu3531 Cu3601  2.556   .     S
Cu3531 Cu3620  2.556   .     S
Cu3532 Cu3533  2.556   .     S
Cu3532 Cu3534  2.556   .     S
Cu3532 Cu3535  2.556   .     S
Cu3532 Cu3583  2.556   .     S
Cu3532 Cu3597  2.556   .     S
Cu3532 Cu3601  2.556   .     S
Cu3532 Cu3603  2.556   .     S
Cu3533 Cu3534  2.556   .     S
Cu3533 Cu3535  2.556   .     S
Cu3533 Cu3550  2.556   .     S
Cu3533 Cu3552  2.556   .     S
Cu3533 Cu3554  2.556   .     S
Cu3534 Cu3535  2.556   .     S
Cu3534 Cu3536  2.556   .     S
Cu3534 Cu3537  2.556   .     S
Cu3535 Cu3536  2.556   .     S
Cu3535 Cu3537  2.556   .     S
Cu3535 Cu3552  2.556   .     S
Cu3535 Cu3554  2.556   .     S
Cu3535 Cu3601  2.556   .     S
Cu3535 Cu3603  2.556   .     S
Cu3536 Cu3537  2.556   .     S
Cu3536 Cu3539  2.556   .     S
Cu3536 Cu3603  2.556   .     S
Cu3537 Cu3539  2.556   .     S
Cu3537 Cu3554  2.556   .     S
Cu3538 Cu3540  2.556   .     S
Cu3538 Cu3541  2.556   .     S
Cu3540 Cu3541  2.556   .     S
Cu3540 Cu3542  2.556   .     S
Cu3540 Cu3543  2.556   .     S
Cu3540 Cu3608  2.556   .     S
Cu3541 Cu3542  2.556   .     S
Cu3541 Cu3543  2.556   .     S
Cu3541 Cu3558  2.556   .     S
Cu3542 Cu3543  2.556   .     S
Cu3542 Cu3544  2.556   .     S
Cu3542 Cu3545  2.556   .     S
Cu3543 Cu3544  2.556   .     S
Cu3543 Cu3545  2.556   .     S
Cu3543 Cu3558  2.556   .     S
Cu3543 Cu3560  2.556   .     S
Cu3543 Cu3608  2.556   .     S
Cu3543 Cu3612  2.556   .     S
Cu3544 Cu3545  2.556   .     S
Cu3544 Cu3588  2.556   .     S
Cu3544 Cu3590  2.556   .     S
Cu3544 Cu3608  2.556   .     S
Cu3544 Cu3612  2.556   .     S
Cu3545 Cu3546  2.556   .     S
Cu3545 Cu3558  2.556   .     S
Cu3545 Cu3560  2.556   .     S
Cu3546 Cu3547  2.556   .     S
Cu3546 Cu3548  2.556   .     S
Cu3546 Cu3549  2.556   .     S
Cu3546 Cu3560  2.556   .     S
Cu3546 Cu3561  2.556   .     S
Cu3547 Cu3548  2.556   .     S
Cu3547 Cu3549  2.556   .     S
Cu3547 Cu3560  2.556   .     S
Cu3547 Cu3561  2.556   .     S
Cu3547 Cu3614  2.556   .     S
Cu3547 Cu3618  2.556   .     S
Cu3548 Cu3549  2.556   .     S
Cu3548 Cu3550  2.556   .     S
Cu3548 Cu3551  2.556   .     S
Cu3548 Cu3595  2.556   .     S
Cu3548 Cu3614  2.556   .     S
Cu3548 Cu3618  2.556   .     S
Cu3548 Cu3620  2.556   .     S
Cu3549 Cu3550  2.556   .     S
Cu3549 Cu3551  2.556   .     S
Cu3550 Cu3551  2.556   .     S
Cu3550 Cu3552  2.556   .     S
Cu3550 Cu3553  2.556   .     S
Cu3551 Cu3552  2.556   .     S
Cu3551 Cu3553  2.556   .     S
Cu3551 Cu3618  2.556   .     S
Cu3551 Cu3620  2.556   .     S
Cu3552 Cu3553  2.556   .     S
Cu3552 Cu3554  2.556   .     S
Cu3552 Cu3555  2.556   .     S
Cu3552 Cu3601  2.556   .     S
Cu3552 Cu3620  2.556   .     S
Cu3553 Cu3554  2.556   .     S
Cu3553 Cu3555  2.556   .     S
Cu3554 Cu3555  2.556   .     S
Cu3554 Cu3556  2.556   .     S
Cu3555 Cu3556  2.556   .     S
Cu3557 Cu3558  2.556   .     S
Cu3557 Cu3559  2.556   .     S
Cu3558 Cu3559  2.556   .     S
Cu3558 Cu3560  2.556   .     S
Cu3558 Cu3561  2.556   .     S
Cu3559 Cu3560  2.556   .     S
Cu3559 Cu3561  2.556   .     S
Cu3560 Cu3561  2.556   .     S
Cu3560 Cu3612  2.556   .     S
Cu3560 Cu3614  2.556   .     S
Cu3562 Cu3615  2.556   .     S
Cu3562 Cu3617  2.556   .     S
Cu3562 Cu3621  2.556   .     S
Cu3562 Cu3627  2.556   .     S
Cu3562 Cu3632  2.556   .     S
Cu3562 Cu3633  2.556   .     S
Cu3562 Cu3703  2.556   .     S
Cu3563 Cu3615  2.556   .     S
Cu3563 Cu3625  2.556   .     S
Cu3563 Cu3627  2.556   .     S
Cu3563 Cu3640  2.556   .     S
Cu3563 Cu3717  2.556   .     S
Cu3564 Cu3565  2.556   .     S
Cu3564 Cu3566  2.556   .     S
Cu3564 Cu3572  2.556   .     S
Cu3564 Cu3575  2.556   .     S
Cu3564 Cu3586  2.556   .     S
Cu3564 Cu3642  2.556   .     S
Cu3564 Cu3645  2.556   .     S
Cu3564 Cu3657  2.556   .     S
Cu3564 Cu3658  2.556   .     S
Cu3565 Cu3566  2.556   .     S
Cu3565 Cu3568  2.556   .     S
Cu3565 Cu3631  2.556   .     S
Cu3565 Cu3642  2.556   .     S
Cu3565 Cu3645  2.556   .     S
Cu3565 Cu3646  2.556   .     S
Cu3566 Cu3568  2.556   .     S
Cu3566 Cu3572  2.556   .     S
Cu3566 Cu3575  2.556   .     S
Cu3566 Cu3578  2.556   .     S
Cu3567 Cu3573  2.556   .     S
Cu3567 Cu3579  2.556   .     S
Cu3568 Cu3569  2.556   .     S
Cu3568 Cu3575  2.556   .     S
Cu3568 Cu3578  2.556   .     S
Cu3568 Cu3581  2.556   .     S
Cu3568 Cu3645  2.556   .     S
Cu3568 Cu3646  2.556   .     S
Cu3568 Cu3649  2.556   .     S
Cu3568 Cu3662  2.556   .     S
Cu3569 Cu3570  2.556   .     S
Cu3569 Cu3646  2.556   .     S
Cu3569 Cu3649  2.556   .     S
Cu3569 Cu3650  2.556   .     S
Cu3570 Cu3581  2.556   .     S
Cu3570 Cu3649  2.556   .     S
Cu3570 Cu3650  2.556   .     S
Cu3570 Cu3652  2.556   .     S
Cu3570 Cu3666  2.556   .     S
Cu3571 Cu3586  2.556   .     S
Cu3571 Cu3653  2.556   .     S
Cu3571 Cu3654  2.556   .     S
Cu3571 Cu3657  2.556   .     S
Cu3571 Cu3674  2.556   .     S
Cu3572 Cu3574  2.556   .     S
Cu3572 Cu3575  2.556   .     S
Cu3572 Cu3576  2.556   .     S
Cu3572 Cu3586  2.556   .     S
Cu3572 Cu3587  2.556   .     S
Cu3573 Cu3577  2.556   .     S
Cu3573 Cu3588  2.556   .     S
Cu3574 Cu3575  2.556   .     S
Cu3574 Cu3576  2.556   .     S
Cu3574 Cu3586  2.556   .     S
Cu3574 Cu3587  2.556   .     S
Cu3574 Cu3589  2.556   .     S
Cu3574 Cu3592  2.556   .     S
Cu3574 Cu3610  2.556   .     S
Cu3574 Cu3658  2.556   .     S
Cu3574 Cu3661  2.556   .     S
Cu3574 Cu3677  2.556   .     S
Cu3574 Cu3678  2.556   .     S
Cu3575 Cu3576  2.556   .     S
Cu3575 Cu3578  2.556   .     S
Cu3575 Cu3580  2.556   .     S
Cu3575 Cu3645  2.556   .     S
Cu3575 Cu3658  2.556   .     S
Cu3575 Cu3661  2.556   .     S
Cu3575 Cu3662  2.556   .     S
Cu3576 Cu3578  2.556   .     S
Cu3576 Cu3580  2.556   .     S
Cu3576 Cu3589  2.556   .     S
Cu3576 Cu3592  2.556   .     S
Cu3576 Cu3596  2.556   .     S
Cu3577 Cu3579  2.556   .     S
Cu3577 Cu3590  2.556   .     S
Cu3577 Cu3593  2.556   .     S
Cu3577 Cu3597  2.556   .     S
Cu3578 Cu3580  2.556   .     S
Cu3578 Cu3581  2.556   .     S
Cu3578 Cu3582  2.556   .     S
Cu3579 Cu3583  2.556   .     S
Cu3580 Cu3581  2.556   .     S
Cu3580 Cu3582  2.556   .     S
Cu3580 Cu3592  2.556   .     S
Cu3580 Cu3596  2.556   .     S
Cu3580 Cu3599  2.556   .     S
Cu3580 Cu3661  2.556   .     S
Cu3580 Cu3662  2.556   .     S
Cu3580 Cu3665  2.556   .     S
Cu3580 Cu3682  2.556   .     S
Cu3581 Cu3582  2.556   .     S
Cu3581 Cu3584  2.556   .     S
Cu3581 Cu3649  2.556   .     S
Cu3581 Cu3662  2.556   .     S
Cu3581 Cu3665  2.556   .     S
Cu3581 Cu3666  2.556   .     S
Cu3582 Cu3584  2.556   .     S
Cu3582 Cu3596  2.556   .     S
Cu3582 Cu3599  2.556   .     S
Cu3582 Cu3602  2.556   .     S
Cu3583 Cu3597  2.556   .     S
Cu3583 Cu3603  2.556   .     S
Cu3584 Cu3599  2.556   .     S
Cu3584 Cu3602  2.556   .     S
Cu3584 Cu3605  2.556   .     S
Cu3584 Cu3665  2.556   .     S
Cu3584 Cu3666  2.556   .     S
Cu3584 Cu3669  2.556   .     S
Cu3584 Cu3686  2.556   .     S
Cu3585 Cu3586  2.556   .     S
Cu3585 Cu3587  2.556   .     S
Cu3585 Cu3606  2.556   .     S
Cu3585 Cu3607  2.556   .     S
Cu3585 Cu3610  2.556   .     S
Cu3585 Cu3673  2.556   .     S
Cu3585 Cu3674  2.556   .     S
Cu3585 Cu3677  2.556   .     S
Cu3585 Cu3696  2.556   .     S
Cu3586 Cu3587  2.556   .     S
Cu3586 Cu3657  2.556   .     S
Cu3586 Cu3658  2.556   .     S
Cu3586 Cu3674  2.556   .     S
Cu3586 Cu3677  2.556   .     S
Cu3587 Cu3589  2.556   .     S
Cu3587 Cu3607  2.556   .     S
Cu3587 Cu3610  2.556   .     S
Cu3588 Cu3590  2.556   .     S
Cu3588 Cu3608  2.556   .     S
Cu3589 Cu3591  2.556   .     S
Cu3589 Cu3592  2.556   .     S
Cu3589 Cu3594  2.556   .     S
Cu3589 Cu3610  2.556   .     S
Cu3589 Cu3611  2.556   .     S
Cu3590 Cu3593  2.556   .     S
Cu3590 Cu3595  2.556   .     S
Cu3590 Cu3612  2.556   .     S
Cu3591 Cu3592  2.556   .     S
Cu3591 Cu3594  2.556   .     S
Cu3591 Cu3610  2.556   .     S
Cu3591 Cu3611  2.556   .     S
Cu3591 Cu3613  2.556   .     S
Cu3591 Cu3616  2.556   .     S
Cu3591 Cu3626  2.556   .     S
Cu3591 Cu3678  2.556   .     S
Cu3591 Cu3681  2.556   .     S
Cu3591 Cu3699  2.556   .     S
Cu3591 Cu3700  2.556   .     S
Cu3592 Cu3594  2.556   .     S
Cu3592 Cu3596  2.556   .     S
Cu3592 Cu3598  2.556   .     S
Cu3592 Cu3661  2.556   .     S
Cu3592 Cu3678  2.556   .     S
Cu3592 Cu3681  2.556   .     S
Cu3592 Cu3682  2.556   .     S
Cu3593 Cu3595  2.556   .     S
Cu3593 Cu3597  2.556   .     S
Cu3594 Cu3596  2.556   .     S
Cu3594 Cu3598  2.556   .     S
Cu3594 Cu3613  2.556   .     S
Cu3594 Cu3616  2.556   .     S
Cu3594 Cu3619  2.556   .     S
Cu3595 Cu3597  2.556   .     S
Cu3595 Cu3614  2.556   .     S
Cu3595 Cu3620  2.556   .     S
Cu3596 Cu3598  2.556   .     S
Cu3596 Cu3599  2.556   .     S
Cu3596 Cu3600  2.556   .     S
Cu3597 Cu3601  2.556   .     S
Cu3598 Cu3599  2.556   .     S
Cu3598 Cu3600  2.556   .     S
Cu3598 Cu3616  2.556   .     S
Cu3598 Cu3619  2.556   .     S
Cu3598 Cu3622  2.556   .     S
Cu3598 Cu3681  2.556   .     S
Cu3598 Cu3682  2.556   .     S
Cu3598 Cu3685  2.556   .     S
Cu3598 Cu3704  2.556   .     S
Cu3599 Cu3600  2.556   .     S
Cu3599 Cu3602  2.556   .     S
Cu3599 Cu3604  2.556   .     S
Cu3599 Cu3665  2.556   .     S
Cu3599 Cu3682  2.556   .     S
Cu3599 Cu3685  2.556   .     S
Cu3599 Cu3686  2.556   .     S
Cu3600 Cu3602  2.556   .     S
Cu3600 Cu3604  2.556   .     S
Cu3600 Cu3619  2.556   .     S
Cu3600 Cu3622  2.556   .     S
Cu3601 Cu3603  2.556   .     S
Cu3601 Cu3620  2.556   .     S
Cu3602 Cu3604  2.556   .     S
Cu3602 Cu3605  2.556   .     S
Cu3604 Cu3605  2.556   .     S
Cu3604 Cu3622  2.556   .     S
Cu3604 Cu3685  2.556   .     S
Cu3604 Cu3686  2.556   .     S
Cu3604 Cu3689  2.556   .     S
Cu3604 Cu3708  2.556   .     S
Cu3605 Cu3669  2.556   .     S
Cu3605 Cu3686  2.556   .     S
Cu3605 Cu3689  2.556   .     S
Cu3605 Cu3691  2.556   .     S
Cu3606 Cu3607  2.556   .     S
Cu3606 Cu3609  2.556   .     S
Cu3606 Cu3673  2.556   .     S
Cu3606 Cu3690  2.556   .     S
Cu3606 Cu3695  2.556   .     S
Cu3606 Cu3696  2.556   .     S
Cu3607 Cu3609  2.556   .     S
Cu3607 Cu3610  2.556   .     S
Cu3607 Cu3611  2.556   .     S
Cu3608 Cu3612  2.556   .     S
Cu3609 Cu3610  2.556   .     S
Cu3609 Cu3611  2.556   .     S
Cu3609 Cu3624  2.556   .     S
Cu3609 Cu3626  2.556   .     S
Cu3609 Cu3695  2.556   .     S
Cu3609 Cu3696  2.556   .     S
Cu3609 Cu3699  2.556   .     S
Cu3609 Cu3714  2.556   .     S
Cu3610 Cu3611  2.556   .     S
Cu3610 Cu3677  2.556   .     S
Cu3610 Cu3678  2.556   .     S
Cu3610 Cu3696  2.556   .     S
Cu3610 Cu3699  2.556   .     S
Cu3611 Cu3613  2.556   .     S
Cu3611 Cu3626  2.556   .     S
Cu3612 Cu3614  2.556   .     S
Cu3613 Cu3615  2.556   .     S
Cu3613 Cu3616  2.556   .     S
Cu3613 Cu3617  2.556   .     S
Cu3613 Cu3626  2.556   .     S
Cu3614 Cu3618  2.556   .     S
Cu3615 Cu3616  2.556   .     S
Cu3615 Cu3617  2.556   .     S
Cu3615 Cu3626  2.556   .     S
Cu3615 Cu3627  2.556   .     S
Cu3615 Cu3700  2.556   .     S
Cu3615 Cu3703  2.556   .     S
Cu3615 Cu3717  2.556   .     S
Cu3616 Cu3617  2.556   .     S
Cu3616 Cu3619  2.556   .     S
Cu3616 Cu3621  2.556   .     S
Cu3616 Cu3681  2.556   .     S
Cu3616 Cu3700  2.556   .     S
Cu3616 Cu3703  2.556   .     S
Cu3616 Cu3704  2.556   .     S
Cu3617 Cu3619  2.556   .     S
Cu3617 Cu3621  2.556   .     S
Cu3618 Cu3620  2.556   .     S
Cu3619 Cu3621  2.556   .     S
Cu3619 Cu3622  2.556   .     S
Cu3621 Cu3622  2.556   .     S
Cu3621 Cu3633  2.556   .     S
Cu3621 Cu3703  2.556   .     S
Cu3621 Cu3704  2.556   .     S
Cu3621 Cu3707  2.556   .     S
Cu3622 Cu3623  2.556   .     S
Cu3622 Cu3685  2.556   .     S
Cu3622 Cu3704  2.556   .     S
Cu3622 Cu3707  2.556   .     S
Cu3622 Cu3708  2.556   .     S
Cu3623 Cu3637  2.556   .     S
Cu3623 Cu3707  2.556   .     S
Cu3623 Cu3708  2.556   .     S
Cu3623 Cu3711  2.556   .     S
Cu3624 Cu3625  2.556   .     S
Cu3624 Cu3695  2.556   .     S
Cu3624 Cu3713  2.556   .     S
Cu3624 Cu3714  2.556   .     S
Cu3625 Cu3626  2.556   .     S
Cu3625 Cu3640  2.556   .     S
Cu3625 Cu3713  2.556   .     S
Cu3625 Cu3714  2.556   .     S
Cu3625 Cu3717  2.556   .     S
Cu3626 Cu3699  2.556   .     S
Cu3626 Cu3700  2.556   .     S
Cu3626 Cu3714  2.556   .     S
Cu3626 Cu3717  2.556   .     S
Cu3627 Cu3629  2.556   .     S
Cu3627 Cu3630  2.556   .     S
Cu3627 Cu3632  2.556   .     S
Cu3627 Cu3641  2.556   .     S
Cu3627 Cu3701  2.556   .     S
Cu3627 Cu3703  2.556   .     S
Cu3627 Cu3717  2.556   .     S
Cu3628 Cu3631  2.556   .     S
Cu3628 Cu3642  2.556   .     S
Cu3628 Cu3644  2.556   .     S
Cu3628 Cu3656  2.556   .     S
Cu3629 Cu3630  2.556   .     S
Cu3629 Cu3632  2.556   .     S
Cu3629 Cu3641  2.556   .     S
Cu3630 Cu3632  2.556   .     S
Cu3630 Cu3633  2.556   .     S
Cu3630 Cu3635  2.556   .     S
Cu3630 Cu3701  2.556   .     S
Cu3630 Cu3703  2.556   .     S
Cu3630 Cu3705  2.556   .     S
Cu3631 Cu3634  2.556   .     S
Cu3631 Cu3642  2.556   .     S
Cu3631 Cu3644  2.556   .     S
Cu3631 Cu3646  2.556   .     S
Cu3632 Cu3633  2.556   .     S
Cu3632 Cu3635  2.556   .     S
Cu3633 Cu3635  2.556   .     S
Cu3633 Cu3636  2.556   .     S
Cu3633 Cu3703  2.556   .     S
Cu3633 Cu3705  2.556   .     S
Cu3633 Cu3707  2.556   .     S
Cu3634 Cu3644  2.556   .     S
Cu3634 Cu3646  2.556   .     S
Cu3634 Cu3648  2.556   .     S
Cu3635 Cu3636  2.556   .     S
Cu3636 Cu3637  2.556   .     S
Cu3636 Cu3705  2.556   .     S
Cu3636 Cu3707  2.556   .     S
Cu3636 Cu3709  2.556   .     S
Cu3637 Cu3638  2.556   .     S
Cu3637 Cu3707  2.556   .     S
Cu3637 Cu3709  2.556   .     S
Cu3637 Cu3711  2.556   .     S
Cu3638 Cu3709  2.556   .     S
Cu3638 Cu3711  2.556   .     S
Cu3639 Cu3640  2.556   .     S
Cu3639 Cu3713  2.556   .     S
Cu3639 Cu3715  2.556   .     S
Cu3640 Cu3641  2.556   .     S
Cu3640 Cu3713  2.556   .     S
Cu3640 Cu3715  2.556   .     S
Cu3640 Cu3717  2.556   .     S
Cu3641 Cu3701  2.556   .     S
Cu3641 Cu3715  2.556   .     S
Cu3641 Cu3717  2.556   .     S
Cu3642 Cu3643  2.556   .     S
Cu3642 Cu3644  2.556   .     S
Cu3642 Cu3645  2.556   .     S
Cu3642 Cu3656  2.556   .     S
Cu3642 Cu3657  2.556   .     S
Cu3643 Cu3644  2.556   .     S
Cu3643 Cu3645  2.556   .     S
Cu3643 Cu3656  2.556   .     S
Cu3643 Cu3657  2.556   .     S
Cu3643 Cu3658  2.556   .     S
Cu3643 Cu3660  2.556   .     S
Cu3643 Cu3676  2.556   .     S
Cu3644 Cu3645  2.556   .     S
Cu3644 Cu3646  2.556   .     S
Cu3644 Cu3647  2.556   .     S
Cu3645 Cu3646  2.556   .     S
Cu3645 Cu3647  2.556   .     S
Cu3645 Cu3658  2.556   .     S
Cu3645 Cu3660  2.556   .     S
Cu3645 Cu3662  2.556   .     S
Cu3646 Cu3647  2.556   .     S
Cu3646 Cu3648  2.556   .     S
Cu3646 Cu3649  2.556   .     S
Cu3647 Cu3648  2.556   .     S
Cu3647 Cu3649  2.556   .     S
Cu3647 Cu3660  2.556   .     S
Cu3647 Cu3662  2.556   .     S
Cu3647 Cu3664  2.556   .     S
Cu3648 Cu3649  2.556   .     S
Cu3648 Cu3650  2.556   .     S
Cu3648 Cu3651  2.556   .     S
Cu3649 Cu3650  2.556   .     S
Cu3649 Cu3651  2.556   .     S
Cu3649 Cu3662  2.556   .     S
Cu3649 Cu3664  2.556   .     S
Cu3649 Cu3666  2.556   .     S
Cu3650 Cu3651  2.556   .     S
Cu3650 Cu3652  2.556   .     S
Cu3651 Cu3652  2.556   .     S
Cu3651 Cu3664  2.556   .     S
Cu3651 Cu3666  2.556   .     S
Cu3651 Cu3668  2.556   .     S
Cu3652 Cu3666  2.556   .     S
Cu3652 Cu3668  2.556   .     S
Cu3653 Cu3654  2.556   .     S
Cu3653 Cu3655  2.556   .     S
Cu3653 Cu3672  2.556   .     S
Cu3653 Cu3674  2.556   .     S
Cu3654 Cu3655  2.556   .     S
Cu3654 Cu3656  2.556   .     S
Cu3654 Cu3657  2.556   .     S
Cu3655 Cu3656  2.556   .     S
Cu3655 Cu3657  2.556   .     S
Cu3655 Cu3672  2.556   .     S
Cu3655 Cu3674  2.556   .     S
Cu3655 Cu3676  2.556   .     S
Cu3656 Cu3657  2.556   .     S
Cu3657 Cu3658  2.556   .     S
Cu3657 Cu3674  2.556   .     S
Cu3657 Cu3676  2.556   .     S
Cu3658 Cu3659  2.556   .     S
Cu3658 Cu3660  2.556   .     S
Cu3658 Cu3661  2.556   .     S
Cu3658 Cu3676  2.556   .     S
Cu3658 Cu3677  2.556   .     S
Cu3659 Cu3660  2.556   .     S
Cu3659 Cu3661  2.556   .     S
Cu3659 Cu3676  2.556   .     S
Cu3659 Cu3677  2.556   .     S
Cu3659 Cu3678  2.556   .     S
Cu3659 Cu3680  2.556   .     S
Cu3659 Cu3698  2.556   .     S
Cu3660 Cu3661  2.556   .     S
Cu3660 Cu3662  2.556   .     S
Cu3660 Cu3663  2.556   .     S
Cu3661 Cu3662  2.556   .     S
Cu3661 Cu3663  2.556   .     S
Cu3661 Cu3678  2.556   .     S
Cu3661 Cu3680  2.556   .     S
Cu3661 Cu3682  2.556   .     S
Cu3662 Cu3663  2.556   .     S
Cu3662 Cu3664  2.556   .     S
Cu3662 Cu3665  2.556   .     S
Cu3663 Cu3664  2.556   .     S
Cu3663 Cu3665  2.556   .     S
Cu3663 Cu3680  2.556   .     S
Cu3663 Cu3682  2.556   .     S
Cu3663 Cu3684  2.556   .     S
Cu3664 Cu3665  2.556   .     S
Cu3664 Cu3666  2.556   .     S
Cu3664 Cu3667  2.556   .     S
Cu3665 Cu3666  2.556   .     S
Cu3665 Cu3667  2.556   .     S
Cu3665 Cu3682  2.556   .     S
Cu3665 Cu3684  2.556   .     S
Cu3665 Cu3686  2.556   .     S
Cu3666 Cu3667  2.556   .     S
Cu3666 Cu3668  2.556   .     S
Cu3666 Cu3669  2.556   .     S
Cu3667 Cu3668  2.556   .     S
Cu3667 Cu3669  2.556   .     S
Cu3667 Cu3684  2.556   .     S
Cu3667 Cu3686  2.556   .     S
Cu3667 Cu3688  2.556   .     S
Cu3668 Cu3669  2.556   .     S
Cu3668 Cu3671  2.556   .     S
Cu3669 Cu3671  2.556   .     S
Cu3669 Cu3686  2.556   .     S
Cu3669 Cu3688  2.556   .     S
Cu3669 Cu3691  2.556   .     S
Cu3670 Cu3672  2.556   .     S
Cu3670 Cu3673  2.556   .     S
Cu3670 Cu3690  2.556   .     S
Cu3670 Cu3694  2.556   .     S
Cu3671 Cu3688  2.556   .     S
Cu3671 Cu3691  2.556   .     S
Cu3672 Cu3673  2.556   .     S
Cu3672 Cu3674  2.556   .     S
Cu3672 Cu3675  2.556   .     S
Cu3673 Cu3674  2.556   .     S
Cu3673 Cu3675  2.556   .     S
Cu3673 Cu3690  2.556   .     S
Cu3673 Cu3694  2.556   .     S
Cu3673 Cu3696  2.556   .     S
Cu3674 Cu3675  2.556   .     S
Cu3674 Cu3676  2.556   .     S
Cu3674 Cu3677  2.556   .     S
Cu3675 Cu3676  2.556   .     S
Cu3675 Cu3677  2.556   .     S
Cu3675 Cu3694  2.556   .     S
Cu3675 Cu3696  2.556   .     S
Cu3675 Cu3698  2.556   .     S
Cu3676 Cu3677  2.556   .     S
Cu3677 Cu3678  2.556   .     S
Cu3677 Cu3696  2.556   .     S
Cu3677 Cu3698  2.556   .     S
Cu3678 Cu3679  2.556   .     S
Cu3678 Cu3680  2.556   .     S
Cu3678 Cu3681  2.556   .     S
Cu3678 Cu3698  2.556   .     S
Cu3678 Cu3699  2.556   .     S
Cu3679 Cu3680  2.556   .     S
Cu3679 Cu3681  2.556   .     S
Cu3679 Cu3698  2.556   .     S
Cu3679 Cu3699  2.556   .     S
Cu3679 Cu3700  2.556   .     S
Cu3679 Cu3702  2.556   .     S
Cu3679 Cu3716  2.556   .     S
Cu3680 Cu3681  2.556   .     S
Cu3680 Cu3682  2.556   .     S
Cu3680 Cu3683  2.556   .     S
Cu3681 Cu3682  2.556   .     S
Cu3681 Cu3683  2.556   .     S
Cu3681 Cu3700  2.556   .     S
Cu3681 Cu3702  2.556   .     S
Cu3681 Cu3704  2.556   .     S
Cu3682 Cu3683  2.556   .     S
Cu3682 Cu3684  2.556   .     S
Cu3682 Cu3685  2.556   .     S
Cu3683 Cu3684  2.556   .     S
Cu3683 Cu3685  2.556   .     S
Cu3683 Cu3702  2.556   .     S
Cu3683 Cu3704  2.556   .     S
Cu3683 Cu3706  2.556   .     S
Cu3684 Cu3685  2.556   .     S
Cu3684 Cu3686  2.556   .     S
Cu3684 Cu3687  2.556   .     S
Cu3685 Cu3686  2.556   .     S
Cu3685 Cu3687  2.556   .     S
Cu3685 Cu3704  2.556   .     S
Cu3685 Cu3706  2.556   .     S
Cu3685 Cu3708  2.556   .     S
Cu3686 Cu3687  2.556   .     S
Cu3686 Cu3688  2.556   .     S
Cu3686 Cu3689  2.556   .     S
Cu3687 Cu3688  2.556   .     S
Cu3687 Cu3689  2.556   .     S
Cu3687 Cu3706  2.556   .     S
Cu3687 Cu3708  2.556   .     S
Cu3687 Cu3710  2.556   .     S
Cu3688 Cu3689  2.556   .     S
Cu3688 Cu3691  2.556   .     S
Cu3688 Cu3693  2.556   .     S
Cu3689 Cu3691  2.556   .     S
Cu3689 Cu3693  2.556   .     S
Cu3689 Cu3708  2.556   .     S
Cu3689 Cu3710  2.556   .     S
Cu3690 Cu3692  2.556   .     S
Cu3690 Cu3694  2.556   .     S
Cu3690 Cu3695  2.556   .     S
Cu3691 Cu3693  2.556   .     S
Cu3692 Cu3694  2.556   .     S
Cu3692 Cu3695  2.556   .     S
Cu3692 Cu3712  2.556   .     S
Cu3693 Cu3710  2.556   .     S
Cu3694 Cu3695  2.556   .     S
Cu3694 Cu3696  2.556   .     S
Cu3694 Cu3697  2.556   .     S
Cu3695 Cu3696  2.556   .     S
Cu3695 Cu3697  2.556   .     S
Cu3695 Cu3712  2.556   .     S
Cu3695 Cu3714  2.556   .     S
Cu3696 Cu3697  2.556   .     S
Cu3696 Cu3698  2.556   .     S
Cu3696 Cu3699  2.556   .     S
Cu3697 Cu3698  2.556   .     S
Cu3697 Cu3699  2.556   .     S
Cu3697 Cu3712  2.556   .     S
Cu3697 Cu3714  2.556   .     S
Cu3697 Cu3716  2.556   .     S
Cu3698 Cu3699  2.556   .     S
Cu3699 Cu3700  2.556   .     S
Cu3699 Cu3714  2.556   .     S
Cu3699 Cu3716  2.556   .     S
Cu3700 Cu3701  2.556   .     S
Cu3700 Cu3702  2.556   .     S
Cu3700 Cu3703  2.556   .     S
Cu3700 Cu3716  2.556   .     S
Cu3700 Cu3717  2.556   .     S
Cu3701 Cu3702  2.556   .     S
Cu3701 Cu3703  2.556   .     S
Cu3701 Cu3716  2.556   .     S
Cu3701 Cu3717  2.556   .     S
Cu3702 Cu3703  2.556   .     S
Cu3702 Cu3704  2.556   .     S
Cu3702 Cu3705  2.556   .     S
Cu3703 Cu3704  2.556   .     S
Cu3703 Cu3705  2.556   .     S
Cu3704 Cu3705  2.556   .     S
Cu3704 Cu3706  2.556   .     S
Cu3704 Cu3707  2.556   .     S
Cu3705 Cu3706  2.556   .     S
Cu3705 Cu3707  2.556   .     S
Cu3706 Cu3707  2.556   .     S
Cu3706 Cu3708  2.556   .     S
Cu3706 Cu3709  2.556   .     S
Cu3707 Cu3708  2.556   .     S
Cu3707 Cu3709  2.556   .     S
Cu3708 Cu3709  2.556   .     S
Cu3708 Cu3710  2.556   .     S
Cu3708 Cu3711  2.556   .     S
Cu3709 Cu3710  2.556   .     S
Cu3709 Cu3711  2.556   .     S
Cu3710 Cu3711  2.556   .     S
Cu3712 Cu3713  2.556   .     S
Cu3712 Cu3714  2.556   .     S
Cu3712 Cu3715  2.556   .     S
Cu3713 Cu3714  2.556   .     S
Cu3713 Cu3715  2.556   .     S
Cu3714 Cu3715  2.556   .     S
Cu3714 Cu3716  2.556   .     S
Cu3714 Cu3717  2.556   .     S
Cu3715 Cu3716  2.556   .     S
Cu3715 Cu3717  2.556   .     S
Cu3716 Cu3717  2.556   .     S
C3718  O3719   1.196   .     D
C3718  O3720   1.208   .     D
C3721  O3722   1.193   .     D
C3721  O3723   1.200   .     D
C3724  O3725   1.215   .     D
C3724  O3726   1.201   .     D
C3727  O3728   1.214   .     D
C3727  O3729   1.217   .     D
C3730  O3731   1.217   .     D
C3730  O3732   1.193   .     D
C3733  O3734   1.204   .     D
C3733  O3735   1.210   .     D
C3736  O3737   1.229   .     D
C3736  O3738   1.241   .     D
C3739  O3740   1.180   .     D
C3739  O3741   1.190   .     D
C3742  O3743   1.204   .     D
C3742  O3744   1.191   .     D
C3745  O3746   1.207   .     D
C3745  O3747   1.213   .     D
C3748  O3749   1.202   .     D
C3748  O3750   1.207   .     D
C3751  O3752   1.200   .     D
C3751  O3753   1.206   .     D
C3754  O3755   1.189   .     D
C3754  O3756   1.215   .     D
C3757  O3758   1.199   .     D
C3757  O3759   1.183   .     D
C3760  O3761   1.201   .     D
C3760  O3762   1.199   .     D
C3763  O3764   1.183   .     D
C3763  O3765   1.190   .     D
C3766  O3767   1.220   .     D
C3766  O3768   1.188   .     D
C3769  O3770   1.192   .     D
C3769  O3771   1.196   .     D
C3772  O3773   1.206   .     D
C3772  O3774   1.224   .     D
C3775  O3776   1.174   .     D
C3775  O3777   1.214   .     D
C3778  O3779   1.211   .     D
C3778  O3780   1.213   .     D
C3781  O3782   1.187   .     D
C3781  O3783   1.178   .     D
C3784  O3785   1.186   .     D
C3784  O3786   1.188   .     D
C3787  O3788   1.207   .     D
C3787  O3789   1.229   .     D
C3790  O3791   1.206   .     D
C3790  O3792   1.197   .     D
C3793  O3794   1.194   .     D
C3793  O3795   1.187   .     D
C3796  O3797   1.208   .     D
C3796  O3798   1.202   .     D
C3799  O3800   1.218   .     D
C3799  O3801   1.192   .     D
C3802  O3803   1.202   .     D
C3802  O3804   1.214   .     D
C3805  O3806   1.222   .     D
C3805  O3807   1.192   .     D
C3808  O3809   1.170   .     D
C3808  O3810   1.186   .     D
C3811  O3812   1.190   .     D
C3811  O3813   1.207   .     D
C3814  O3815   1.195   .     D
C3814  O3816   1.206   .     D
C3817  O3818   1.195   .     D
C3817  O3819   1.203   .     D
C3820  O3821   1.191   .     D
C3820  O3822   1.192   .     D
C3823  O3824   1.231   .     D
C3823  O3825   1.194   .     D
C3826  O3827   1.186   .     D
C3826  O3828   1.173   .     D
C3829  O3830   1.200   .     D
C3829  O3831   1.218   .     D
C3832  O3833   1.197   .     D
C3832  O3834   1.209   .     D
C3835  O3836   1.187   .     D
C3835  O3837   1.191   .     D
C3838  O3839   1.195   .     D
C3838  O3840   1.175   .     D
C3841  O3842   1.199   .     D
C3841  O3843   1.208   .     D
C3844  O3845   1.205   .     D
C3844  O3846   1.207   .     D
C3847  O3848   1.212   .     D
C3847  O3849   1.194   .     D
C3850  O3851   1.214   .     D
C3850  O3852   1.201   .     D
C3853  O3854   1.202   .     D
C3853  O3855   1.207   .     D
C3856  O3857   1.215   .     D
C3856  O3858   1.223   .     D
C3859  O3860   1.190   .     D
C3859  O3861   1.205   .     D
C3862  O3863   1.199   .     D
C3862  O3864   1.183   .     D
C3865  O3866   1.222   .     D
C3865  O3867   1.188   .     D
C3868  O3869   1.199   .     D
C3868  O3870   1.198   .     D
C3871  O3872   1.200   .     D
C3871  O3873   1.207   .     D
C3874  O3875   1.203   .     D
C3874  O3876   1.204   .     D
C3877  O3878   1.191   .     D
C3877  O3879   1.207   .     D
C3880  O3881   1.205   .     D
C3880  O3882   1.198   .     D
C3883  O3884   1.195   .     D
C3883  O3885   1.198   .     D
C3886  O3887   1.227   .     D
C3886  O3888   1.205   .     D
C3889  O3890   1.203   .     D
C3889  O3891   1.200   .     D
C3892  O3893   1.195   .     D
C3892  O3894   1.192   .     D
C3895  O3896   1.187   .     D
C3895  O3897   1.203   .     D
C3898  O3899   1.169   .     D
C3898  O3900   1.203   .     D
C3901  O3902   1.199   .     D
C3901  O3903   1.198   .     D
C3904  O3905   1.203   .     D
C3904  O3906   1.197   .     D
C3907  O3908   1.196   .     D
C3907  O3909   1.200   .     D
C3910  O3911   1.203   .     D
C3910  O3912   1.197   .     D
C3913  O3914   1.182   .     D
C3913  O3915   1.186   .     D
C3916  O3917   1.200   .     D
C3916  O3918   1.202   .     D
C3919  O3920   1.160   .     D
C3919  O3921   1.171   .     D
C3922  O3923   1.195   .     D
C3922  O3924   1.196   .     D
C3925  O3926   1.181   .     D
C3925  O3927   1.235   .     D
C3928  O3929   1.210   .     D
C3928  O3930   1.201   .     D
C3931  O3932   1.208   .     D
C3931  O3933   1.196   .     D
C3934  O3935   1.192   .     D
C3934  O3936   1.196   .     D
C3937  O3938   1.213   .     D
C3937  O3939   1.206   .     D
C3940  O3941   1.211   .     D
C3940  O3942   1.186   .     D
C3943  O3944   1.199   .     D
C3943  O3945   1.200   .     D
C3946  O3947   1.216   .     D
C3946  O3948   1.166   .     D
C3949  O3950   1.210   .     D
C3949  O3951   1.197   .     D
C3952  O3953   1.182   .     D
C3952  O3954   1.192   .     D
C3955  O3956   1.204   .     D
C3955  O3957   1.202   .     D
C3958  O3959   1.208   .     D
C3958  O3960   1.198   .     D
C3961  O3962   1.198   .     D
C3961  O3963   1.204   .     D
C3964  O3965   1.202   .     D
C3964  O3966   1.200   .     D
C3967  O3968   1.194   .     D
C3967  O3969   1.193   .     D
C3970  O3971   1.195   .     D
C3970  O3972   1.199   .     D
C3973  O3974   1.205   .     D
C3973  O3975   1.193   .     D
C3976  O3977   1.194   .     D
C3976  O3978   1.196   .     D
C3979  O3980   1.187   .     D
C3979  O3981   1.217   .     D
C3982  O3983   1.193   .     D
C3982  O3984   1.201   .     D
C3985  O3986   1.191   .     D
C3985  O3987   1.177   .     D
C3988  O3989   1.183   .     D
C3988  O3990   1.176   .     D
C3991  O3992   1.204   .     D
C3991  O3993   1.195   .     D
C3994  O3995   1.196   .     D
C3994  O3996   1.162   .     D
C3997  O3998   1.210   .     D
C3997  O3999   1.218   .     D
C4000  O4001   1.196   .     D
C4000  O4002   1.201   .     D
C4003  O4004   1.217   .     D
C4003  O4005   1.176   .     D
C4006  O4007   1.202   .     D
C4006  O4008   1.181   .     D
C4009  O4010   1.193   .     D
C4009  O4011   1.211   .     D
C4012  O4013   1.179   .     D
C4012  O4014   1.182   .     D
C4015  O4016   1.203   .     D
C4015  O4017   1.190   .     D
C4018  O4019   1.227   .     D
C4018  O4020   1.221   .     D
C4021  O4022   1.187   .     D
C4021  O4023   1.175   .     D
C4024  O4025   1.214   .     D
C4024  O4026   1.211   .     D
C4027  O4028   1.194   .     D
C4027  O4029   1.216   .     D
C4030  O4031   1.201   .     D
C4030  O4032   1.202   .     D
C4033  O4034   1.196   .     D
C4033  O4035   1.208   .     D
C4036  O4037   1.182   .     D
C4036  O4038   1.193   .     D
C4039  O4040   1.191   .     D
C4039  O4041   1.199   .     D
C4042  O4043   1.206   .     D
C4042  O4044   1.186   .     D
C4045  O4046   1.201   .     D
C4045  O4047   1.194   .     D
C4048  O4049   1.206   .     D
C4048  O4050   1.200   .     D
C4051  O4052   1.189   .     D
C4051  O4053   1.206   .     D
C4054  O4055   1.195   .     D
C4054  O4056   1.193   .     D
C4057  O4058   1.203   .     D
C4057  O4059   1.190   .     D
C4060  O4061   1.217   .     D
C4060  O4062   1.197   .     D
C4063  O4064   1.207   .     D
C4063  O4065   1.216   .     D
C4066  O4067   1.179   .     D
C4066  O4068   1.163   .     D
C4069  O4070   1.209   .     D
C4069  O4071   1.198   .     D
C4072  O4073   1.196   .     D
C4072  O4074   1.235   .     D
C4075  O4076   1.209   .     D
C4075  O4077   1.206   .     D
C4078  O4079   1.173   .     D
C4078  O4080   1.202   .     D
C4081  O4082   1.189   .     D
C4081  O4083   1.187   .     D
C4084  O4085   1.189   .     D
C4084  O4086   1.210   .     D
C4087  O4088   1.183   .     D
C4087  O4089   1.223   .     D
C4090  O4091   1.207   .     D
C4090  O4092   1.207   .     D
C4093  O4094   1.186   .     D
C4093  O4095   1.203   .     D
C4096  O4097   1.209   .     D
C4096  O4098   1.192   .     D
C4099  O4100   1.211   .     D
C4099  O4101   1.211   .     D
C4102  O4103   1.159   .     D
C4102  O4104   1.200   .     D
C4105  O4106   1.231   .     D
C4105  O4107   1.227   .     D
C4108  O4109   1.198   .     D
C4108  O4110   1.201   .     D
C4111  O4112   1.212   .     D
C4111  O4113   1.196   .     D
C4114  O4115   1.203   .     D
C4114  O4116   1.185   .     D
C4117  O4118   1.212   .     D
C4117  O4119   1.213   .     D
C4120  O4121   1.181   .     D
C4120  O4122   1.205   .     D
C4123  O4124   1.204   .     D
C4123  O4125   1.202   .     D
C4126  O4127   1.193   .     D
C4126  O4128   1.200   .     D
C4129  O4130   1.181   .     D
C4129  O4131   1.201   .     D
C4132  O4133   1.170   .     D
C4132  O4134   1.204   .     D
C4135  O4136   1.190   .     D
C4135  O4137   1.214   .     D
C4138  O4139   1.211   .     D
C4138  O4140   1.201   .     D
C4141  O4142   1.192   .     D
C4141  O4143   1.192   .     D
C4144  O4145   1.186   .     D
C4144  O4146   1.191   .     D
C4147  O4148   1.198   .     D
C4147  O4149   1.190   .     D
C4150  O4151   1.195   .     D
C4150  O4152   1.205   .     D
C4153  O4154   1.211   .     D
C4153  O4155   1.211   .     D
C4156  O4157   1.209   .     D
C4156  O4158   1.191   .     D
C4159  O4160   1.176   .     D
C4159  O4161   1.191   .     D
C4162  O4163   1.212   .     D
C4162  O4164   1.178   .     D
C4165  O4166   1.198   .     D
C4165  O4167   1.201   .     D
C4168  O4169   1.187   .     D
C4168  O4170   1.187   .     D
C4171  O4172   1.191   .     D
C4171  O4173   1.218   .     D
C4174  O4175   1.185   .     D
C4174  O4176   1.191   .     D
C4177  O4178   1.194   .     D
C4177  O4179   1.201   .     D
C4180  O4181   1.210   .     D
C4180  O4182   1.241   .     D
C4183  O4184   1.210   .     D
C4183  O4185   1.202   .     D
C4186  O4187   1.193   .     D
C4186  O4188   1.206   .     D
C4189  O4190   1.178   .     D
C4189  O4191   1.168   .     D
C4192  O4193   1.219   .     D
C4192  O4194   1.199   .     D
C4195  O4196   1.195   .     D
C4195  O4197   1.192   .     D
C4198  O4199   1.168   .     D
C4198  O4200   1.206   .     D
C4201  O4202   1.189   .     D
C4201  O4203   1.200   .     D
C4204  O4205   1.191   .     D
C4204  O4206   1.190   .     D
C4207  O4208   1.216   .     D
C4207  O4209   1.188   .     D
C4210  O4211   1.202   .     D
C4210  O4212   1.190   .     D
C4213  O4214   1.190   .     D
C4213  O4215   1.192   .     D
C4216  O4217   1.207   .     D
C4216  O4218   1.201   .     D
C4219  O4220   1.196   .     D
C4219  O4221   1.194   .     D
C4222  O4223   1.202   .     D
C4222  O4224   1.202   .     D
C4225  O4226   1.210   .     D
C4225  O4227   1.213   .     D
C4228  O4229   1.187   .     D
C4228  O4230   1.197   .     D
C4231  O4232   1.201   .     D
C4231  O4233   1.205   .     D
C4234  O4235   1.188   .     D
C4234  O4236   1.195   .     D
C4237  O4238   1.182   .     D
C4237  O4239   1.223   .     D
C4240  O4241   1.200   .     D
C4240  O4242   1.195   .     D
C4243  O4244   1.223   .     D
C4243  O4245   1.211   .     D
C4246  O4247   1.224   .     D
C4246  O4248   1.204   .     D
C4249  O4250   1.222   .     D
C4249  O4251   1.194   .     D
C4252  O4253   1.204   .     D
C4252  O4254   1.205   .     D
C4255  O4256   1.202   .     D
C4255  O4257   1.188   .     D
C4258  O4259   1.210   .     D
C4258  O4260   1.175   .     D
C4261  O4262   1.175   .     D
C4261  O4263   1.207   .     D
C4264  O4265   1.223   .     D
C4264  O4266   1.201   .     D
C4267  O4268   1.207   .     D
C4267  O4269   1.162   .     D
C4270  O4271   1.184   .     D
C4270  O4272   1.166   .     D
C4273  O4274   1.182   .     D
C4273  O4275   1.215   .     D
C4276  O4277   1.198   .     D
C4276  O4278   1.201   .     D
C4279  O4280   1.197   .     D
C4279  O4281   1.200   .     D
C4282  O4283   1.203   .     D
C4282  O4284   1.180   .     D
C4285  O4286   1.191   .     D
C4285  O4287   1.172   .     D
C4288  O4289   1.196   .     D
C4288  O4290   1.193   .     D
C4291  O4292   1.183   .     D
C4291  O4293   1.194   .     D
C4294  O4295   1.197   .     D
C4294  O4296   1.198   .     D
C4297  O4298   1.197   .     D
C4297  O4299   1.192   .     D
C4300  O4301   1.188   .     D
C4300  O4302   1.190   .     D
C4303  O4304   1.196   .     D
C4303  O4305   1.190   .     D
C4306  O4307   1.219   .     D
C4306  O4308   1.186   .     D
C4309  O4310   1.203   .     D
C4309  O4311   1.199   .     D
C4312  O4313   1.190   .     D
C4312  O4314   1.200   .     D
C4315  O4316   1.197   .     D
C4315  O4317   1.199   .     D
C4318  O4319   1.195   .     D
C4318  O4320   1.203   .     D
C4321  O4322   1.183   .     D
C4321  O4323   1.194   .     D
C4324  O4325   1.193   .     D
C4324  O4326   1.193   .     D
C4327  O4328   1.203   .     D
C4327  O4329   1.185   .     D
C4330  O4331   1.182   .     D
C4330  O4332   1.192   .     D
C4333  O4334   1.223   .     D
C4333  O4335   1.186   .     D
C4336  O4337   1.186   .     D
C4336  O4338   1.175   .     D
C4339  O4340   1.166   .     D
C4339  O4341   1.165   .     D
C4342  O4343   1.211   .     D
C4342  O4344   1.181   .     D
C4345  O4346   1.193   .     D
C4345  O4347   1.202   .     D
C4348  O4349   1.189   .     D
C4348  O4350   1.183   .     D
C4351  O4352   1.192   .     D
C4351  O4353   1.192   .     D
C4354  O4355   1.190   .     D
C4354  O4356   1.174   .     D
C4357  O4358   1.171   .     D
C4357  O4359   1.190   .     D
C4360  O4361   1.202   .     D
C4360  O4362   1.199   .     D
C4363  O4364   1.190   .     D
C4363  O4365   1.191   .     D
C4366  O4367   1.188   .     D
C4366  O4368   1.189   .     D
C4369  O4370   1.184   .     D
C4369  O4371   1.187   .     D
C4372  O4373   1.192   .     D
C4372  O4374   1.185   .     D
C4375  O4376   1.197   .     D
C4375  O4377   1.223   .     D
C4378  O4379   1.191   .     D
C4378  O4380   1.190   .     D
C4381  O4382   1.206   .     D
C4381  O4383   1.215   .     D
C4384  O4385   1.195   .     D
C4384  O4386   1.209   .     D
C4387  O4388   1.200   .     D
C4387  O4389   1.177   .     D
C4390  O4391   1.209   .     D
C4390  O4392   1.211   .     D
C4393  O4394   1.217   .     D
C4393  O4395   1.207   .     D
C4396  O4397   1.182   .     D
C4396  O4398   1.203   .     D
C4399  O4400   1.183   .     D
C4399  O4401   1.171   .     D
C4402  O4403   1.184   .     D
C4402  O4404   1.158   .     D
C4405  O4406   1.205   .     D
C4405  O4407   1.200   .     D
C4408  O4409   1.198   .     D
C4408  O4410   1.204   .     D
C4411  O4412   1.201   .     D
C4411  O4413   1.200   .     D
C4414  O4415   1.188   .     D
C4414  O4416   1.212   .     D
C4417  O4418   1.196   .     D
C4417  O4419   1.198   .     D
C4420  O4421   1.170   .     D
C4420  O4422   1.185   .     D
C4423  O4424   1.207   .     D
C4423  O4425   1.199   .     D
C4426  O4427   1.183   .     D
C4426  O4428   1.208   .     D
C4429  O4430   1.174   .     D
C4429  O4431   1.190   .     D
C4432  O4433   1.197   .     D
C4432  O4434   1.184   .     D
C4435  O4436   1.162   .     D
C4435  O4437   1.172   .     D
C4438  O4439   1.215   .     D
C4438  O4440   1.245   .     D
C4441  O4442   1.197   .     D
C4441  O4443   1.194   .     D
C4444  O4445   1.200   .     D
C4444  O4446   1.181   .     D
C4447  O4448   1.206   .     D
C4447  O4449   1.197   .     D
C4450  O4451   1.190   .     D
C4450  O4452   1.193   .     D
C4453  O4454   1.192   .     D
C4453  O4455   1.198   .     D
C4456  O4457   1.180   .     D
C4456  O4458   1.200   .     D
C4459  O4460   1.196   .     D
C4459  O4461   1.196   .     D
C4462  O4463   1.202   .     D
C4462  O4464   1.182   .     D
C4465  O4466   1.204   .     D
C4465  O4467   1.191   .     D
C4468  O4469   1.181   .     D
C4468  O4470   1.201   .     D
C4471  O4472   1.226   .     D
C4471  O4473   1.204   .     D
C4474  O4475   1.200   .     D
C4474  O4476   1.196   .     D
C4477  O4478   1.201   .     D
C4477  O4479   1.195   .     D
C4480  O4481   1.207   .     D
C4480  O4482   1.194   .     D
C4483  O4484   1.193   .     D
C4483  O4485   1.205   .     D
C4486  O4487   1.200   .     D
C4486  O4488   1.194   .     D
C4489  O4490   1.186   .     D
C4489  O4491   1.204   .     D
C4492  O4493   1.210   .     D
C4492  O4494   1.208   .     D
C4495  O4496   1.190   .     D
C4495  O4497   1.186   .     D
C4498  O4499   1.197   .     D
C4498  O4500   1.211   .     D
C4501  O4502   1.212   .     D
C4501  O4503   1.197   .     D
C4504  O4505   1.180   .     D
C4504  O4506   1.208   .     D
C4507  O4508   1.229   .     D
C4507  O4509   1.214   .     D
C4510  O4511   1.197   .     D
C4510  O4512   1.193   .     D
C4513  O4514   1.196   .     D
C4513  O4515   1.216   .     D
C4516  O4517   1.197   .     D
C4516  O4518   1.189   .     D
C4519  O4520   1.180   .     D
C4519  O4521   1.180   .     D
C4522  O4523   1.184   .     D
C4522  O4524   1.213   .     D
C4525  O4526   1.180   .     D
C4525  O4527   1.193   .     D
C4528  O4529   1.189   .     D
C4528  O4530   1.185   .     D
C4531  O4532   1.182   .     D
C4531  O4533   1.200   .     D
C4534  O4535   1.193   .     D
C4534  O4536   1.205   .     D
C4537  O4538   1.186   .     D
C4537  O4539   1.225   .     D
C4540  O4541   1.196   .     D
C4540  O4542   1.192   .     D
C4543  O4544   1.198   .     D
C4543  O4545   1.194   .     D
C4546  O4547   1.231   .     D
C4546  O4548   1.155   .     D
C4549  O4550   1.193   .     D
C4549  O4551   1.195   .     D
C4552  O4553   1.204   .     D
C4552  O4554   1.190   .     D
C4555  O4556   1.176   .     D
C4555  O4557   1.224   .     D
C4558  O4559   1.176   .     D
C4558  O4560   1.207   .     D
C4561  O4562   1.198   .     D
C4561  O4563   1.192   .     D
C4564  O4565   1.197   .     D
C4564  O4566   1.169   .     D
C4567  O4568   1.176   .     D
C4567  O4569   1.190   .     D
C4570  O4571   1.177   .     D
C4570  O4572   1.188   .     D
C4573  O4574   1.189   .     D
C4573  O4575   1.210   .     D
C4576  O4577   1.164   .     D
C4576  O4578   1.235   .     D
C4579  O4580   1.197   .     D
C4579  O4581   1.205   .     D
C4582  O4583   1.204   .     D
C4582  O4584   1.179   .     D
C4585  O4586   1.214   .     D
C4585  O4587   1.201   .     D
C4588  O4589   1.192   .     D
C4588  O4590   1.201   .     D
C4591  O4592   1.172   .     D
C4591  O4593   1.177   .     D
C4594  O4595   1.186   .     D
C4594  O4596   1.197   .     D
C4597  O4598   1.223   .     D
C4597  O4599   1.177   .     D
C4600  O4601   1.197   .     D
C4600  O4602   1.202   .     D
C4603  O4604   1.208   .     D
C4603  O4605   1.179   .     D
C4606  O4607   1.196   .     D
C4606  O4608   1.198   .     D
C4609  O4610   1.180   .     D
C4609  O4611   1.201   .     D
C4612  O4613   1.203   .     D
C4612  O4614   1.213   .     D
C4615  O4616   1.171   .     D
C4615  O4617   1.180   .     D
C4618  O4619   1.203   .     D
C4618  O4620   1.193   .     D
C4621  O4622   1.191   .     D
C4621  O4623   1.198   .     D
C4624  O4625   1.185   .     D
C4624  O4626   1.211   .     D
C4627  O4628   1.214   .     D
C4627  O4629   1.191   .     D
C4630  O4631   1.197   .     D
C4630  O4632   1.201   .     D
C4633  O4634   1.194   .     D
C4633  O4635   1.198   .     D
C4636  O4637   1.175   .     D
C4636  O4638   1.199   .     D
C4639  O4640   1.193   .     D
C4639  O4641   1.200   .     D
C4642  O4643   1.196   .     D
C4642  O4644   1.215   .     D
C4645  O4646   1.199   .     D
C4645  O4647   1.202   .     D
C4648  O4649   1.210   .     D
C4648  O4650   1.189   .     D
C4651  O4652   1.213   .     D
C4651  O4653   1.222   .     D
C4654  O4655   1.201   .     D
C4654  O4656   1.200   .     D
C4657  O4658   1.198   .     D
C4657  O4659   1.211   .     D
C4660  O4661   1.218   .     D
C4660  O4662   1.176   .     D
C4663  O4664   1.184   .     D
C4663  O4665   1.183   .     D
C4666  O4667   1.222   .     D
C4666  O4668   1.217   .     D
C4669  O4670   1.187   .     D
C4669  O4671   1.206   .     D
C4672  O4673   1.194   .     D
C4672  O4674   1.196   .     D
C4675  O4676   1.200   .     D
C4675  O4677   1.204   .     D
C4678  O4679   1.200   .     D
C4678  O4680   1.197   .     D
C4681  O4682   1.188   .     D
C4681  O4683   1.219   .     D
C4684  O4685   1.217   .     D
C4684  O4686   1.206   .     D
C4687  O4688   1.189   .     D
C4687  O4689   1.161   .     D
C4690  O4691   1.186   .     D
C4690  O4692   1.196   .     D
C4693  O4694   1.214   .     D
C4693  O4695   1.214   .     D
C4696  O4697   1.207   .     D
C4696  O4698   1.194   .     D
C4699  O4700   1.202   .     D
C4699  O4701   1.211   .     D
C4702  O4703   1.203   .     D
C4702  O4704   1.211   .     D
C4705  O4706   1.198   .     D
C4705  O4707   1.212   .     D
C4708  O4709   1.202   .     D
C4708  O4710   1.184   .     D
C4711  O4712   1.199   .     D
C4711  O4713   1.213   .     D
C4714  O4715   1.186   .     D
C4714  O4716   1.190   .     D
C4717  O4718   1.194   .     D
C4717  O4719   1.186   .     D
C4720  O4721   1.189   .     D
C4720  O4722   1.202   .     D
C4723  O4724   1.187   .     D
C4723  O4725   1.220   .     D
C4726  O4727   1.175   .     D
C4726  O4728   1.216   .     D
C4729  O4730   1.223   .     D
C4729  O4731   1.223   .     D
C4732  O4733   1.187   .     D
C4732  O4734   1.196   .     D
C4735  O4736   1.201   .     D
C4735  O4737   1.181   .     D
C4738  O4739   1.183   .     D
C4738  O4740   1.188   .     D
C4741  O4742   1.191   .     D
C4741  O4743   1.199   .     D
C4744  O4745   1.177   .     D
C4744  O4746   1.181   .     D
C4747  O4748   1.189   .     D
C4747  O4749   1.192   .     D
C4750  O4751   1.195   .     D
C4750  O4752   1.177   .     D
C4753  O4754   1.194   .     D
C4753  O4755   1.203   .     D
C4756  O4757   1.205   .     D
C4756  O4758   1.217   .     D
C4759  O4760   1.206   .     D
C4759  O4761   1.204   .     D
C4762  O4763   1.171   .     D
C4762  O4764   1.192   .     D
C4765  O4766   1.176   .     D
C4765  O4767   1.191   .     D
C4768  O4769   1.192   .     D
C4768  O4770   1.197   .     D
C4771  O4772   1.176   .     D
C4771  O4773   1.224   .     D
C4774  O4775   1.199   .     D
C4774  O4776   1.203   .     D
C4777  O4778   1.194   .     D
C4777  O4779   1.192   .     D
C4780  O4781   1.182   .     D
C4780  O4782   1.194   .     D
C4783  O4784   1.205   .     D
C4783  O4785   1.160   .     D
C4786  O4787   1.203   .     D
C4786  O4788   1.209   .     D
C4789  O4790   1.193   .     D
C4789  O4791   1.198   .     D
C4792  O4793   1.225   .     D
C4792  O4794   1.195   .     D
C4795  O4796   1.188   .     D
C4795  O4797   1.193   .     D
C4798  O4799   1.223   .     D
C4798  O4800   1.207   .     D
C4801  O4802   1.179   .     D
C4801  O4803   1.198   .     D
C4804  O4805   1.199   .     D
C4804  O4806   1.192   .     D
C4807  O4808   1.171   .     D
C4807  O4809   1.167   .     D
C4810  O4811   1.208   .     D
C4810  O4812   1.210   .     D
C4813  O4814   1.232   .     D
C4813  O4815   1.174   .     D
C4816  O4817   1.195   .     D
C4816  O4818   1.188   .     D
C4819  O4820   1.219   .     D
C4819  O4821   1.191   .     D
C4822  O4823   1.198   .     D
C4822  O4824   1.183   .     D
C4825  O4826   1.208   .     D
C4825  O4827   1.200   .     D
C4828  O4829   1.204   .     D
C4828  O4830   1.192   .     D
C4831  O4832   1.210   .     D
C4831  O4833   1.232   .     D
C4834  O4835   1.201   .     D
C4834  O4836   1.196   .     D
C4837  O4838   1.190   .     D
C4837  O4839   1.193   .     D
C4840  O4841   1.199   .     D
C4840  O4842   1.179   .     D
C4843  O4844   1.194   .     D
C4843  O4845   1.202   .     D
C4846  O4847   1.206   .     D
C4846  O4848   1.204   .     D
C4849  O4850   1.161   .     D
C4849  O4851   1.196   .     D
C4852  O4853   1.202   .     D
C4852  O4854   1.198   .     D
C4855  O4856   1.211   .     D
C4855  O4857   1.208   .     D
C4858  O4859   1.199   .     D
C4858  O4860   1.202   .     D
C4861  O4862   1.197   .     D
C4861  O4863   1.204   .     D
C4864  O4865   1.222   .     D
C4864  O4866   1.187   .     D
C4867  O4868   1.211   .     D
C4867  O4869   1.200   .     D
C4870  O4871   1.168   .     D
C4870  O4872   1.188   .     D
C4873  O4874   1.190   .     D
C4873  O4875   1.200   .     D
C4876  O4877   1.207   .     D
C4876  O4878   1.200   .     D
C4879  O4880   1.207   .     D
C4879  O4881   1.216   .     D
C4882  O4883   1.211   .     D
C4882  O4884   1.211   .     D
C4885  O4886   1.208   .     D
C4885  O4887   1.177   .     D
C4888  O4889   1.176   .     D
C4888  O4890   1.192   .     D
C4891  O4892   1.193   .     D
C4891  O4893   1.190   .     D
C4894  O4895   1.194   .     D
C4894  O4896   1.212   .     D
C4897  O4898   1.198   .     D
C4897  O4899   1.219   .     D
C4900  O4901   1.212   .     D
C4900  O4902   1.193   .     D
C4903  O4904   1.183   .     D
C4903  O4905   1.202   .     D
C4906  O4907   1.182   .     D
C4906  O4908   1.180   .     D
C4909  O4910   1.196   .     D
C4909  O4911   1.209   .     D
C4912  O4913   1.175   .     D
C4912  O4914   1.189   .     D
C4915  O4916   1.231   .     D
C4915  O4917   1.201   .     D
C4918  O4919   1.196   .     D
C4918  O4920   1.198   .     D
C4921  O4922   1.207   .     D
C4921  O4923   1.201   .     D
C4924  O4925   1.198   .     D
C4924  O4926   1.200   .     D
C4927  O4928   1.191   .     D
C4927  O4929   1.187   .     D
C4930  O4931   1.190   .     D
C4930  O4932   1.185   .     D
C4933  O4934   1.241   .     D
C4933  O4935   1.179   .     D
C4936  O4937   1.181   .     D
C4936  O4938   1.207   .     D
C4939  O4940   1.191   .     D
C4939  O4941   1.204   .     D
C4942  O4943   1.195   .     D
C4942  O4944   1.190   .     D
C4945  O4946   1.194   .     D
C4945  O4947   1.181   .     D
C4948  O4949   1.184   .     D
C4948  O4950   1.181   .     D
C4951  O4952   1.190   .     D
C4951  O4953   1.202   .     D
C4954  O4955   1.206   .     D
C4954  O4956   1.214   .     D
C4957  O4958   1.229   .     D
C4957  O4959   1.229   .     D
C4960  O4961   1.190   .     D
C4960  O4962   1.189   .     D
C4963  O4964   1.223   .     D
C4963  O4965   1.209   .     D
C4966  O4967   1.199   .     D
C4966  O4968   1.198   .     D
C4969  O4970   1.175   .     D
C4969  O4971   1.199   .     D
C4972  O4973   1.197   .     D
C4972  O4974   1.210   .     D
C4975  O4976   1.193   .     D
C4975  O4977   1.192   .     D
C4978  O4979   1.199   .     D
C4978  O4980   1.207   .     D
C4981  O4982   1.170   .     D
C4981  O4983   1.210   .     D
C4984  O4985   1.198   .     D
C4984  O4986   1.247   .     D
C4987  O4988   1.214   .     D
C4987  O4989   1.204   .     D
C4990  O4991   1.207   .     D
C4990  O4992   1.197   .     D
C4993  O4994   1.203   .     D
C4993  O4995   1.190   .     D
C4996  O4997   1.175   .     D
C4996  O4998   1.192   .     D
C4999  O5000   1.175   .     D
C4999  O5001   1.180   .     D
C5002  O5003   1.179   .     D
C5002  O5004   1.240   .     D
C5005  O5006   1.191   .     D
C5005  O5007   1.228   .     D
C5008  O5009   1.182   .     D
C5008  O5010   1.206   .     D
C5011  O5012   1.188   .     D
C5011  O5013   1.214   .     D
C5014  O5015   1.204   .     D
C5014  O5016   1.212   .     D
C5017  O5018   1.187   .     D
C5017  O5019   1.208   .     D
C5020  O5021   1.180   .     D
C5020  O5022   1.210   .     D
C5023  O5024   1.185   .     D
C5023  O5025   1.202   .     D
C5026  O5027   1.205   .     D
C5026  O5028   1.195   .     D
C5029  O5030   1.231   .     D
C5029  O5031   1.183   .     D
C5032  O5033   1.192   .     D
C5032  O5034   1.199   .     D
C5035  O5036   1.188   .     D
C5035  O5037   1.177   .     D
C5038  O5039   1.202   .     D
C5038  O5040   1.206   .     D
C5041  O5042   1.208   .     D
C5041  O5043   1.187   .     D
C5044  O5045   1.206   .     D
C5044  O5046   1.190   .     D
C5047  O5048   1.195   .     D
C5047  O5049   1.204   .     D
C5050  O5051   1.204   .     D
C5050  O5052   1.200   .     D
C5053  O5054   1.206   .     D
C5053  O5055   1.196   .     D
C5056  O5057   1.198   .     D
C5056  O5058   1.205   .     D
C5059  O5060   1.182   .     D
C5059  O5061   1.175   .     D
C5062  O5063   1.201   .     D
C5062  O5064   1.207   .     D
C5065  O5066   1.216   .     D
C5065  O5067   1.200   .     D
C5068  O5069   1.201   .     D
C5068  O5070   1.184   .     D
C5071  O5072   1.194   .     D
C5071  O5073   1.199   .     D
C5074  O5075   1.192   .     D
C5074  O5076   1.198   .     D
C5077  O5078   1.192   .     D
C5077  O5079   1.197   .     D
C5080  O5081   1.194   .     D
C5080  O5082   1.198   .     D
C5083  O5084   1.185   .     D
C5083  O5085   1.217   .     D
C5086  O5087   1.192   .     D
C5086  O5088   1.197   .     D
C5089  O5090   1.191   .     D
C5089  O5091   1.204   .     D
C5092  O5093   1.200   .     D
C5092  O5094   1.187   .     D
C5095  O5096   1.211   .     D
C5095  O5097   1.189   .     D
C5098  O5099   1.199   .     D
C5098  O5100   1.198   .     D
C5101  O5102   1.190   .     D
C5101  O5103   1.206   .     D
C5104  O5105   1.209   .     D
C5104  O5106   1.196   .     D
C5107  O5108   1.178   .     D
C5107  O5109   1.176   .     D
C5110  O5111   1.211   .     D
C5110  O5112   1.179   .     D
C5113  O5114   1.212   .     D
C5113  O5115   1.203   .     D
C5116  O5117   1.214   .     D
C5116  O5118   1.219   .     D
C5119  O5120   1.176   .     D
C5119  O5121   1.184   .     D
C5122  O5123   1.193   .     D
C5122  O5124   1.189   .     D
C5125  O5126   1.160   .     D
C5125  O5127   1.194   .     D
C5128  O5129   1.201   .     D
C5128  O5130   1.203   .     D
C5131  O5132   1.205   .     D
C5131  O5133   1.203   .     D
C5134  O5135   1.191   .     D
C5134  O5136   1.198   .     D
C5137  O5138   1.206   .     D
C5137  O5139   1.190   .     D
C5140  O5141   1.191   .     D
C5140  O5142   1.190   .     D
C5143  O5144   1.192   .     D
C5143  O5145   1.202   .     D
C5146  O5147   1.193   .     D
C5146  O5148   1.188   .     D
C5149  O5150   1.215   .     D
C5149  O5151   1.254   .     D
C5152  O5153   1.207   .     D
C5152  O5154   1.218   .     D
C5155  O5156   1.220   .     D
C5155  O5157   1.180   .     D
C5158  O5159   1.196   .     D
C5158  O5160   1.192   .     D
C5161  O5162   1.176   .     D
C5161  O5163   1.183   .     D
C5164  O5165   1.200   .     D
C5164  O5166   1.195   .     D
C5167  O5168   1.189   .     D
C5167  O5169   1.262   .     D
C5170  O5171   1.205   .     D
C5170  O5172   1.200   .     D
C5173  O5174   1.215   .     D
C5173  O5175   1.192   .     D
C5176  O5177   1.192   .     D
C5176  O5178   1.214   .     D
C5179  O5180   1.209   .     D
C5179  O5181   1.218   .     D
C5182  O5183   1.198   .     D
C5182  O5184   1.200   .     D
C5185  O5186   1.237   .     D
C5185  O5187   1.220   .     D
C5188  O5189   1.217   .     D
C5188  O5190   1.210   .     D
C5191  O5192   1.206   .     D
C5191  O5193   1.191   .     D
C5194  O5195   1.217   .     D
C5194  O5196   1.208   .     D
C5197  O5198   1.192   .     D
C5197  O5199   1.202   .     D
C5200  O5201   1.194   .     D
C5200  O5202   1.217   .     D
C5203  O5204   1.167   .     D
C5203  O5205   1.200   .     D
C5206  O5207   1.207   .     D
C5206  O5208   1.223   .     D
C5209  O5210   1.218   .     D
C5209  O5211   1.209   .     D
C5212  O5213   1.219   .     D
C5212  O5214   1.181   .     D
C5215  O5216   1.187   .     D
C5215  O5217   1.222   .     D
C5218  O5219   1.168   .     D
C5218  O5220   1.188   .     D
C5221  O5222   1.209   .     D
C5221  O5223   1.197   .     D
C5224  O5225   1.203   .     D
C5224  O5226   1.211   .     D
C5227  O5228   1.197   .     D
C5227  O5229   1.186   .     D
C5230  O5231   1.179   .     D
C5230  O5232   1.162   .     D
C5233  O5234   1.204   .     D
C5233  O5235   1.193   .     D
C5236  O5237   1.203   .     D
C5236  O5238   1.189   .     D
C5239  O5240   1.174   .     D
C5239  O5241   1.169   .     D
C5242  O5243   1.188   .     D
C5242  O5244   1.198   .     D
C5245  O5246   1.196   .     D
C5245  O5247   1.190   .     D
C5248  O5249   1.176   .     D
C5248  O5250   1.207   .     D
C5251  O5252   1.190   .     D
C5251  O5253   1.186   .     D
C5254  O5255   1.202   .     D
C5254  O5256   1.190   .     D
C5257  O5258   1.183   .     D
C5257  O5259   1.180   .     D
C5260  O5261   1.191   .     D
C5260  O5262   1.195   .     D
C5263  O5264   1.199   .     D
C5263  O5265   1.195   .     D
C5266  O5267   1.212   .     D
C5266  O5268   1.215   .     D
C5269  O5270   1.194   .     D
C5269  O5271   1.172   .     D
C5272  O5273   1.205   .     D
C5272  O5274   1.181   .     D
C5275  O5276   1.210   .     D
C5275  O5277   1.210   .     D
C5278  O5279   1.195   .     D
C5278  O5280   1.194   .     D
C5281  O5282   1.192   .     D
C5281  O5283   1.209   .     D
C5284  O5285   1.190   .     D
C5284  O5286   1.201   .     D
C5287  O5288   1.166   .     D
C5287  O5289   1.164   .     D
C5290  O5291   1.203   .     D
C5290  O5292   1.188   .     D
C5293  O5294   1.206   .     D
C5293  O5295   1.225   .     D
C5296  O5297   1.181   .     D
C5296  O5298   1.213   .     D
C5299  O5300   1.209   .     D
C5299  O5301   1.192   .     D
C5302  O5303   1.191   .     D
C5302  O5304   1.196   .     D
C5305  O5306   1.192   .     D
C5305  O5307   1.185   .     D
C5308  O5309   1.172   .     D
C5308  O5310   1.200   .     D
C5311  O5312   1.189   .     D
C5311  O5313   1.223   .     D
C5314  O5315   1.196   .     D
C5314  O5316   1.202   .     D
C5317  O5318   1.227   .     D
C5317  O5319   1.210   .     D
C5320  O5321   1.183   .     D
C5320  O5322   1.206   .     D
C5323  O5324   1.215   .     D
C5323  O5325   1.215   .     D
C5326  O5327   1.197   .     D
C5326  O5328   1.202   .     D
C5329  O5330   1.190   .     D
C5329  O5331   1.195   .     D
C5332  O5333   1.193   .     D
C5332  O5334   1.190   .     D
C5335  O5336   1.216   .     D
C5335  O5337   1.206   .     D
C5338  O5339   1.199   .     D
C5338  O5340   1.200   .     D
C5341  O5342   1.202   .     D
C5341  O5343   1.206   .     D
C5344  O5345   1.200   .     D
C5344  O5346   1.199   .     D
C5347  O5348   1.201   .     D
C5347  O5349   1.199   .     D
C5350  O5351   1.191   .     D
C5350  O5352   1.194   .     D
C5353  O5354   1.189   .     D
C5353  O5355   1.213   .     D
C5356  O5357   1.209   .     D
C5356  O5358   1.182   .     D
C5359  O5360   1.170   .     D
C5359  O5361   1.221   .     D
C5362  O5363   1.190   .     D
C5362  O5364   1.208   .     D
C5365  O5366   1.202   .     D
C5365  O5367   1.203   .     D
C5368  O5369   1.207   .     D
C5368  O5370   1.209   .     D
C5371  O5372   1.181   .     D
C5371  O5373   1.187   .     D
C5374  O5375   1.191   .     D
C5374  O5376   1.196   .     D
C5377  O5378   1.196   .     D
C5377  O5379   1.189   .     D
C5380  O5381   1.176   .     D
C5380  O5382   1.176   .     D
C5383  O5384   1.192   .     D
C5383  O5385   1.202   .     D
C5386  O5387   1.148   .     D
C5386  O5388   1.156   .     D
C5389  O5390   1.190   .     D
C5389  O5391   1.191   .     D
C5392  O5393   1.253   .     D
C5392  O5394   1.198   .     D
C5395  O5396   1.201   .     D
C5395  O5397   1.190   .     D
C5398  O5399   1.193   .     D
C5398  O5400   1.200   .     D
C5401  O5402   1.179   .     D
C5401  O5403   1.199   .     D
C5404  O5405   1.214   .     D
C5404  O5406   1.200   .     D
C5407  O5408   1.176   .     D
C5407  O5409   1.195   .     D
C5410  O5411   1.196   .     D
C5410  O5412   1.221   .     D
C5413  O5414   1.191   .     D
C5413  O5415   1.196   .     D
C5416  O5417   1.209   .     D
C5416  O5418   1.185   .     D
C5419  O5420   1.194   .     D
C5419  O5421   1.192   .     D
C5422  O5423   1.184   .     D
C5422  O5424   1.191   .     D
C5425  O5426   1.184   .     D
C5425  O5427   1.178   .     D
C5428  O5429   1.203   .     D
C5428  O5430   1.177   .     D
C5431  O5432   1.164   .     D
C5431  O5433   1.237   .     D
C5434  O5435   1.205   .     D
C5434  O5436   1.202   .     D
C5437  O5438   1.197   .     D
C5437  O5439   1.198   .     D
C5440  O5441   1.204   .     D
C5440  O5442   1.171   .     D
C5443  O5444   1.225   .     D
C5443  O5445   1.189   .     D
C5446  O5447   1.185   .     D
C5446  O5448   1.179   .     D
C5449  O5450   1.192   .     D
C5449  O5451   1.205   .     D
C5452  O5453   1.192   .     D
C5452  O5454   1.191   .     D
C5455  O5456   1.187   .     D
C5455  O5457   1.204   .     D
C5458  O5459   1.209   .     D
C5458  O5460   1.213   .     D
C5461  O5462   1.229   .     D
C5461  O5463   1.208   .     D
C5464  O5465   1.188   .     D
C5464  O5466   1.195   .     D
C5467  O5468   1.190   .     D
C5467  O5469   1.179   .     D
C5470  O5471   1.195   .     D
C5470  O5472   1.191   .     D
C5473  O5474   1.215   .     D
C5473  O5475   1.205   .     D
C5476  O5477   1.202   .     D
C5476  O5478   1.209   .     D
C5479  O5480   1.213   .     D
C5479  O5481   1.189   .     D
C5482  O5483   1.192   .     D
C5482  O5484   1.211   .     D
C5485  O5486   1.205   .     D
C5485  O5487   1.193   .     D
C5488  O5489   1.191   .     D
C5488  O5490   1.205   .     D
C5491  O5492   1.195   .     D
C5491  O5493   1.198   .     D
C5494  O5495   1.188   .     D
C5494  O5496   1.194   .     D
C5497  O5498   1.203   .     D
C5497  O5499   1.178   .     D
C5500  O5501   1.179   .     D
C5500  O5502   1.192   .     D
C5503  O5504   1.182   .     D
C5503  O5505   1.176   .     D
C5506  O5507   1.196   .     D
C5506  O5508   1.215   .     D
C5509  O5510   1.172   .     D
C5509  O5511   1.175   .     D
C5512  O5513   1.182   .     D
C5512  O5514   1.192   .     D
C5515  O5516   1.189   .     D
C5515  O5517   1.181   .     D
C5518  O5519   1.188   .     D
C5518  O5520   1.188   .     D
C5521  O5522   1.176   .     D
C5521  O5523   1.181   .     D
C5524  O5525   1.194   .     D
C5524  O5526   1.192   .     D
C5527  O5528   1.205   .     D
C5527  O5529   1.197   .     D
C5530  O5531   1.183   .     D
C5530  O5532   1.186   .     D
C5533  O5534   1.192   .     D
C5533  O5535   1.180   .     D
C5536  O5537   1.214   .     D
C5536  O5538   1.200   .     D
C5539  O5540   1.196   .     D
C5539  O5541   1.203   .     D
C5542  O5543   1.178   .     D
C5542  O5544   1.234   .     D
C5545  O5546   1.202   .     D
C5545  O5547   1.190   .     D
C5548  O5549   1.187   .     D
C5548  O5550   1.193   .     D
C5551  O5552   1.186   .     D
C5551  O5553   1.187   .     D
C5554  O5555   1.198   .     D
C5554  O5556   1.191   .     D
C5557  O5558   1.195   .     D
C5557  O5559   1.192   .     D
C5560  O5561   1.184   .     D
C5560  O5562   1.235   .     D
C5563  O5564   1.158   .     D
C5563  O5565   1.214   .     D
C5566  O5567   1.186   .     D
C5566  O5568   1.188   .     D
C5569  O5570   1.203   .     D
C5569  O5571   1.200   .     D
C5572  O5573   1.187   .     D
C5572  O5574   1.206   .     D
C5575  O5576   1.210   .     D
C5575  O5577   1.196   .     D
C5578  O5579   1.156   .     D
C5578  O5580   1.209   .     D
C5581  O5582   1.224   .     D
C5581  O5583   1.188   .     D
C5584  O5585   1.207   .     D
C5584  O5586   1.199   .     D
C5587  O5588   1.188   .     D
C5587  O5589   1.168   .     D
C5590  O5591   1.181   .     D
C5590  O5592   1.184   .     D
C5593  O5594   1.200   .     D
C5593  O5595   1.194   .     D
C5596  O5597   1.204   .     D
C5596  O5598   1.191   .     D
C5599  O5600   1.195   .     D
C5599  O5601   1.190   .     D
C5602  O5603   1.197   .     D
C5602  O5604   1.199   .     D
C5605  O5606   1.196   .     D
C5605  O5607   1.198   .     D
C5608  O5609   1.202   .     D
C5608  O5610   1.170   .     D
C5611  O5612   1.189   .     D
C5611  O5613   1.218   .     D
C5614  O5615   1.191   .     D
C5614  O5616   1.193   .     D
C5617  O5618   1.237   .     D
C5617  O5619   1.222   .     D
C5620  O5621   1.212   .     D
C5620  O5622   1.213   .     D
C5623  O5624   1.189   .     D
C5623  O5625   1.186   .     D
C5626  O5627   1.187   .     D
C5626  O5628   1.200   .     D
C5629  O5630   1.196   .     D
C5629  O5631   1.208   .     D
C5632  O5633   1.227   .     D
C5632  O5634   1.170   .     D
C5635  O5636   1.191   .     D
C5635  O5637   1.194   .     D
C5638  O5639   1.179   .     D
C5638  O5640   1.207   .     D
C5641  O5642   1.185   .     D
C5641  O5643   1.199   .     D
C5644  O5645   1.197   .     D
C5644  O5646   1.210   .     D
C5647  O5648   1.175   .     D
C5647  O5649   1.209   .     D
C5650  O5651   1.181   .     D
C5650  O5652   1.209   .     D
C5653  O5654   1.200   .     D
C5653  O5655   1.202   .     D
C5656  O5657   1.176   .     D
C5656  O5658   1.218   .     D
C5659  O5660   1.194   .     D
C5659  O5661   1.199   .     D
C5662  O5663   1.185   .     D
C5662  O5664   1.194   .     D
C5665  O5666   1.205   .     D
C5665  O5667   1.178   .     D
C5668  O5669   1.196   .     D
C5668  O5670   1.186   .     D
C5671  O5672   1.190   .     D
C5671  O5673   1.196   .     D
C5674  O5675   1.204   .     D
C5674  O5676   1.193   .     D
C5677  O5678   1.195   .     D
C5677  O5679   1.169   .     D
C5680  O5681   1.207   .     D
C5680  O5682   1.247   .     D
C5683  O5684   1.239   .     D
C5683  O5685   1.194   .     D
C5686  O5687   1.202   .     D
C5686  O5688   1.194   .     D
C5689  O5690   1.180   .     D
C5689  O5691   1.181   .     D
C5692  O5693   1.183   .     D
C5692  O5694   1.232   .     D
C5695  O5696   1.205   .     D
C5695  O5697   1.215   .     D
C5698  O5699   1.172   .     D
C5698  O5700   1.186   .     D
C5701  O5702   1.197   .     D
C5701  O5703   1.201   .     D
C5704  O5705   1.206   .     D
C5704  O5706   1.203   .     D
C5707  O5708   1.198   .     D
C5707  O5709   1.185   .     D
C5710  O5711   1.183   .     D
C5710  O5712   1.175   .     D
C5713  O5714   1.203   .     D
C5713  O5715   1.209   .     D
C5716  O5717   1.199   .     D
C5716  O5718   1.190   .     D
C5719  O5720   1.198   .     D
C5719  O5721   1.191   .     D
C5722  O5723   1.207   .     D
C5722  O5724   1.202   .     D
C5725  O5726   1.182   .     D
C5725  O5727   1.168   .     D
C5728  O5729   1.195   .     D
C5728  O5730   1.186   .     D
C5731  O5732   1.190   .     D
C5731  O5733   1.191   .     D
C5734  O5735   1.178   .     D
C5734  O5736   1.208   .     D
C5737  O5738   1.180   .     D
C5737  O5739   1.184   .     D
C5740  O5741   1.183   .     D
C5740  O5742   1.205   .     D
C5743  O5744   1.173   .     D
C5743  O5745   1.203   .     D
C5746  O5747   1.198   .     D
C5746  O5748   1.193   .     D
C5749  O5750   1.183   .     D
C5749  O5751   1.201   .     D
C5752  O5753   1.185   .     D
C5752  O5754   1.169   .     D
C5755  O5756   1.193   .     D
C5755  O5757   1.195   .     D
C5758  O5759   1.203   .     D
C5758  O5760   1.202   .     D
C5761  O5762   1.194   .     D
C5761  O5763   1.199   .     D
C5764  O5765   1.195   .     D
C5764  O5766   1.194   .     D
C5767  O5768   1.181   .     D
C5767  O5769   1.184   .     D
C5770  O5771   1.204   .     D
C5770  O5772   1.206   .     D
C5773  O5774   1.182   .     D
C5773  O5775   1.183   .     D
C5776  O5777   1.185   .     D
C5776  O5778   1.190   .     D
C5779  O5780   1.204   .     D
C5779  O5781   1.212   .     D
C5782  O5783   1.216   .     D
C5782  O5784   1.181   .     D
C5785  O5786   1.192   .     D
C5785  O5787   1.194   .     D
C5788  O5789   1.201   .     D
C5788  O5790   1.204   .     D
C5791  O5792   1.217   .     D
C5791  O5793   1.195   .     D
C5794  O5795   1.188   .     D
C5794  O5796   1.199   .     D
C5797  O5798   1.200   .     D
C5797  O5799   1.208   .     D
C5800  O5801   1.196   .     D
C5800  O5802   1.201   .     D
C5803  O5804   1.181   .     D
C5803  O5805   1.218   .     D
C5806  O5807   1.196   .     D
C5806  O5808   1.201   .     D
C5809  O5810   1.202   .     D
C5809  O5811   1.180   .     D
C5812  O5813   1.193   .     D
C5812  O5814   1.204   .     D
C5815  O5816   1.181   .     D
C5815  O5817   1.184   .     D
C5818  O5819   1.208   .     D
C5818  O5820   1.191   .     D
C5821  O5822   1.192   .     D
C5821  O5823   1.197   .     D
C5824  O5825   1.208   .     D
C5824  O5826   1.201   .     D
C5827  O5828   1.200   .     D
C5827  O5829   1.202   .     D
C5830  O5831   1.198   .     D
C5830  O5832   1.213   .     D
C5833  O5834   1.180   .     D
C5833  O5835   1.196   .     D
C5836  O5837   1.195   .     D
C5836  O5838   1.198   .     D
C5839  O5840   1.187   .     D
C5839  O5841   1.209   .     D
C5842  O5843   1.196   .     D
C5842  O5844   1.189   .     D
C5845  O5846   1.206   .     D
C5845  O5847   1.199   .     D
C5848  O5849   1.182   .     D
C5848  O5850   1.205   .     D
C5851  O5852   1.205   .     D
C5851  O5853   1.195   .     D
C5854  O5855   1.196   .     D
C5854  O5856   1.179   .     D
C5857  O5858   1.227   .     D
C5857  O5859   1.194   .     D
C5860  O5861   1.197   .     D
C5860  O5862   1.204   .     D
C5863  O5864   1.187   .     D
C5863  O5865   1.195   .     D
C5866  O5867   1.203   .     D
C5866  O5868   1.178   .     D
C5869  O5870   1.181   .     D
C5869  O5871   1.190   .     D
C5872  O5873   1.200   .     D
C5872  O5874   1.191   .     D
C5875  O5876   1.212   .     D
C5875  O5877   1.191   .     D
C5878  O5879   1.192   .     D
C5878  O5880   1.199   .     D
C5881  O5882   1.203   .     D
C5881  O5883   1.212   .     D
C5884  O5885   1.189   .     D
C5884  O5886   1.233   .     D
C5887  O5888   1.194   .     D
C5887  O5889   1.207   .     D
C5890  O5891   1.186   .     D
C5890  O5892   1.169   .     D
C5893  O5894   1.191   .     D
C5893  O5895   1.199   .     D
C5896  O5897   1.181   .     D
C5896  O5898   1.184   .     D
C5899  O5900   1.176   .     D
C5899  O5901   1.209   .     D
C5902  O5903   1.190   .     D
C5902  O5904   1.198   .     D
C5905  O5906   1.188   .     D
C5905  O5907   1.213   .     D
C5908  O5909   1.186   .     D
C5908  O5910   1.192   .     D
C5911  O5912   1.180   .     D
C5911  O5913   1.190   .     D
C5914  O5915   1.202   .     D
C5914  O5916   1.181   .     D
C5917  O5918   1.194   .     D
C5917  O5919   1.190   .     D
C5920  O5921   1.221   .     D
C5920  O5922   1.184   .     D
C5923  O5924   1.201   .     D
C5923  O5925   1.203   .     D
C5926  O5927   1.201   .     D
C5926  O5928   1.194   .     D
C5929  O5930   1.172   .     D
C5929  O5931   1.195   .     D
C5932  O5933   1.191   .     D
C5932  O5934   1.184   .     D
C5935  O5936   1.185   .     D
C5935  O5937   1.165   .     D
C5938  O5939   1.199   .     D
C5938  O5940   1.239   .     D
C5941  O5942   1.203   .     D
C5941  O5943   1.201   .     D
C5944  O5945   1.192   .     D
C5944  O5946   1.181   .     D
C5947  O5948   1.244   .     D
C5947  O5949   1.191   .     D
C5950  O5951   1.188   .     D
C5950  O5952   1.206   .     D
C5953  O5954   1.171   .     D
C5953  O5955   1.207   .     D
C5956  O5957   1.182   .     D
C5956  O5958   1.153   .     D
C5959  O5960   1.212   .     D
C5959  O5961   1.213   .     D
C5962  O5963   1.207   .     D
C5962  O5964   1.175   .     D
C5965  O5966   1.203   .     D
C5965  O5967   1.197   .     D
C5968  O5969   1.199   .     D
C5968  O5970   1.202   .     D
C5971  O5972   1.200   .     D
C5971  O5973   1.220   .     D
C5974  O5975   1.197   .     D
C5974  O5976   1.193   .     D
C5977  O5978   1.199   .     D
C5977  O5979   1.198   .     D
C5980  O5981   1.203   .     D
C5980  O5982   1.200   .     D
C5983  O5984   1.197   .     D
C5983  O5985   1.207   .     D
C5986  O5987   1.233   .     D
C5986  O5988   1.207   .     D
C5989  O5990   1.188   .     D
C5989  O5991   1.190   .     D
C5992  O5993   1.181   .     D
C5992  O5994   1.192   .     D
C5995  O5996   1.196   .     D
C5995  O5997   1.204   .     D
C5998  O5999   1.170   .     D
C5998  O6000   1.206   .     D
C6001  O6002   1.191   .     D
C6001  O6003   1.197   .     D
C6004  O6005   1.173   .     D
C6004  O6006   1.175   .     D
C6007  O6008   1.242   .     D
C6007  O6009   1.216   .     D
C6010  O6011   1.192   .     D
C6010  O6012   1.194   .     D
C6013  O6014   1.194   .     D
C6013  O6015   1.184   .     D
C6016  O6017   1.216   .     D
C6016  O6018   1.190   .     D
C6019  O6020   1.203   .     D
C6019  O6021   1.213   .     D
C6022  O6023   1.253   .     D
C6022  O6024   1.231   .     D
C6025  O6026   1.191   .     D
C6025  O6027   1.194   .     D
C6028  O6029   1.174   .     D
C6028  O6030   1.180   .     D
C6031  O6032   1.196   .     D
C6031  O6033   1.194   .     D
C6034  O6035   1.207   .     D
C6034  O6036   1.189   .     D
C6037  O6038   1.175   .     D
C6037  O6039   1.180   .     D
C6040  O6041   1.194   .     D
C6040  O6042   1.191   .     D
C6043  O6044   1.187   .     D
C6043  O6045   1.198   .     D
C6046  O6047   1.196   .     D
C6046  O6048   1.197   .     D
C6049  O6050   1.202   .     D
C6049  O6051   1.200   .     D
C6052  O6053   1.200   .     D
C6052  O6054   1.206   .     D
C6055  O6056   1.183   .     D
C6055  O6057   1.208   .     D
C6058  O6059   1.207   .     D
C6058  O6060   1.195   .     D
C6061  O6062   1.209   .     D
C6061  O6063   1.198   .     D
C6064  O6065   1.169   .     D
C6064  O6066   1.204   .     D
C6067  O6068   1.212   .     D
C6067  O6069   1.205   .     D
C6070  O6071   1.151   .     D
C6070  O6072   1.169   .     D
C6073  O6074   1.191   .     D
C6073  O6075   1.198   .     D
C6076  O6077   1.179   .     D
C6076  O6078   1.175   .     D
C6079  O6080   1.189   .     D
C6079  O6081   1.196   .     D
C6082  O6083   1.191   .     D
C6082  O6084   1.201   .     D
C6085  O6086   1.199   .     D
C6085  O6087   1.234   .     D
C6088  O6089   1.198   .     D
C6088  O6090   1.214   .     D
C6091  O6092   1.197   .     D
C6091  O6093   1.229   .     D
C6094  O6095   1.202   .     D
C6094  O6096   1.203   .     D
C6097  O6098   1.185   .     D
C6097  O6099   1.199   .     D
C6100  O6101   1.180   .     D
C6100  O6102   1.212   .     D
C6103  O6104   1.193   .     D
C6103  O6105   1.197   .     D
C6106  O6107   1.204   .     D
C6106  O6108   1.195   .     D
C6109  O6110   1.231   .     D
C6109  O6111   1.168   .     D
C6112  O6113   1.190   .     D
C6112  O6114   1.185   .     D
C6115  O6116   1.166   .     D
C6115  O6117   1.172   .     D
C6118  O6119   1.183   .     D
C6118  O6120   1.218   .     D
C6121  O6122   1.213   .     D
C6121  O6123   1.185   .     D
C6124  O6125   1.191   .     D
C6124  O6126   1.203   .     D
C6127  O6128   1.191   .     D
C6127  O6129   1.211   .     D
C6130  O6131   1.197   .     D
C6130  O6132   1.215   .     D
C6133  O6134   1.206   .     D
C6133  O6135   1.203   .     D
C6136  O6137   1.179   .     D
C6136  O6138   1.183   .     D
C6139  O6140   1.198   .     D
C6139  O6141   1.172   .     D
C6142  O6143   1.192   .     D
C6142  O6144   1.179   .     D
C6145  O6146   1.197   .     D
C6145  O6147   1.215   .     D
C6148  O6149   1.196   .     D
C6148  O6150   1.197   .     D
C6151  O6152   1.189   .     D
C6151  O6153   1.201   .     D
C6154  O6155   1.197   .     D
C6154  O6156   1.189   .     D
C6157  O6158   1.207   .     D
C6157  O6159   1.204   .     D
C6160  O6161   1.221   .     D
C6160  O6162   1.166   .     D
C6163  O6164   1.199   .     D
C6163  O6165   1.228   .     D
C6166  O6167   1.171   .     D
C6166  O6168   1.204   .     D
C6169  O6170   1.174   .     D
C6169  O6171   1.206   .     D
C6172  O6173   1.210   .     D
C6172  O6174   1.213   .     D
C6175  O6176   1.186   .     D
C6175  O6177   1.179   .     D
C6178  O6179   1.226   .     D
C6178  O6180   1.178   .     D
C6181  O6182   1.188   .     D
C6181  O6183   1.202   .     D
C6184  O6185   1.186   .     D
C6184  O6186   1.228   .     D
C6187  O6188   1.200   .     D
C6187  O6189   1.202   .     D
C6190  O6191   1.197   .     D
C6190  O6192   1.181   .     D
C6193  O6194   1.179   .     D
C6193  O6195   1.199   .     D
C6196  O6197   1.193   .     D
C6196  O6198   1.195   .     D
C6199  O6200   1.189   .     D
C6199  O6201   1.219   .     D
C6202  O6203   1.198   .     D
C6202  O6204   1.193   .     D
C6205  O6206   1.191   .     D
C6205  O6207   1.191   .     D
C6208  O6209   1.195   .     D
C6208  O6210   1.214   .     D
C6211  O6212   1.221   .     D
C6211  O6213   1.202   .     D
C6214  O6215   1.191   .     D
C6214  O6216   1.224   .     D
C6217  O6218   1.192   .     D
C6217  O6219   1.175   .     D
C6220  O6221   1.160   .     D
C6220  O6222   1.164   .     D
C6223  O6224   1.186   .     D
C6223  O6225   1.224   .     D
C6226  O6227   1.236   .     D
C6226  O6228   1.197   .     D
C6229  O6230   1.155   .     D
C6229  O6231   1.212   .     D
C6232  O6233   1.164   .     D
C6232  O6234   1.192   .     D
C6235  O6236   1.210   .     D
C6235  O6237   1.203   .     D
C6238  O6239   1.193   .     D
C6238  O6240   1.192   .     D
C6241  O6242   1.204   .     D
C6241  O6243   1.227   .     D
C6244  O6245   1.202   .     D
C6244  O6246   1.228   .     D
C6247  O6248   1.187   .     D
C6247  O6249   1.205   .     D
C6250  O6251   1.186   .     D
C6250  O6252   1.182   .     D
C6253  O6254   1.147   .     T
C6255  O6256   1.205   .     D
C6255  O6257   1.208   .     D
C6258  O6259   1.187   .     D
C6258  O6260   1.194   .     D
C6261  O6262   1.202   .     D
C6261  O6263   1.196   .     D
C6264  O6265   1.191   .     D
C6264  O6266   1.206   .     D
C6267  O6268   1.155   .     D
C6267  O6269   1.199   .     D
C6270  O6271   1.210   .     D
C6270  O6272   1.197   .     D
C6273  O6274   1.199   .     D
C6273  O6275   1.191   .     D
C6276  O6277   1.205   .     D
C6276  O6278   1.191   .     D
C6279  O6280   1.180   .     D
C6279  O6281   1.184   .     D
C6282  O6283   1.197   .     D
C6282  O6284   1.188   .     D
C6285  O6286   1.180   .     D
C6285  O6287   1.191   .     D
C6288  O6289   1.206   .     D
C6288  O6290   1.188   .     D
C6291  O6292   1.183   .     D
C6291  O6293   1.176   .     D
C6294  O6295   1.203   .     D
C6294  O6296   1.208   .     D
C6297  O6298   1.200   .     D
C6297  O6299   1.203   .     D
C6300  O6301   1.197   .     D
C6300  O6302   1.190   .     D
C6303  O6304   1.224   .     D
C6303  O6305   1.213   .     D
C6306  O6307   1.205   .     D
C6306  O6308   1.187   .     D
C6309  O6310   1.211   .     D
C6309  O6311   1.201   .     D
C6312  O6313   1.191   .     D
C6312  O6314   1.208   .     D
C6315  O6316   1.179   .     D
C6315  O6317   1.212   .     D
C6318  O6319   1.209   .     D
C6318  O6320   1.147   .     D
C6321  O6322   1.201   .     D
C6321  O6323   1.207   .     D
C6324  O6325   1.206   .     D
C6324  O6326   1.174   .     D
C6327  O6328   1.195   .     D
C6327  O6329   1.182   .     D
C6330  O6331   1.202   .     D
C6330  O6332   1.187   .     D
C6333  O6334   1.216   .     D
C6333  O6335   1.165   .     D
C6336  O6337   1.193   .     D
C6336  O6338   1.206   .     D
C6339  O6340   1.226   .     D
C6339  O6341   1.185   .     D
C6342  O6343   1.193   .     D
C6342  O6344   1.205   .     D
C6345  O6346   1.200   .     D
C6345  O6347   1.189   .     D
C6348  O6349   1.202   .     D
C6348  O6350   1.176   .     D
C6351  O6352   1.203   .     D
C6351  O6353   1.200   .     D
C6354  O6355   1.188   .     D
C6354  O6356   1.230   .     D
C6357  O6358   1.189   .     D
C6357  O6359   1.176   .     D
C6360  O6361   1.189   .     D
C6360  O6362   1.169   .     D
C6363  O6364   1.221   .     D
C6363  O6365   1.206   .     D
C6366  O6367   1.187   .     D
C6366  O6368   1.196   .     D
C6369  O6370   1.177   .     D
C6369  O6371   1.237   .     D
C6372  O6373   1.196   .     D
C6372  O6374   1.185   .     D
C6375  O6376   1.192   .     D
C6375  O6377   1.194   .     D
C6378  O6379   1.193   .     D
C6378  O6380   1.195   .     D
C6381  O6382   1.191   .     D
C6381  O6383   1.207   .     D
C6384  O6385   1.177   .     D
C6384  O6386   1.203   .     D
C6387  O6388   1.198   .     D
C6387  O6389   1.187   .     D
C6390  O6391   1.191   .     D
C6390  O6392   1.193   .     D
C6393  O6394   1.198   .     D
C6393  O6395   1.157   .     D
C6396  O6397   1.191   .     D
C6396  O6398   1.205   .     D
C6399  O6400   1.201   .     D
C6399  O6401   1.203   .     D
C6402  O6403   1.195   .     D
C6402  O6404   1.223   .     D
C6405  O6406   1.192   .     D
C6405  O6407   1.202   .     D
C6408  O6409   1.202   .     D
C6408  O6410   1.201   .     D
C6411  O6412   1.181   .     D
C6411  O6413   1.186   .     D
C6414  O6415   1.142   .     T
C6416  O6417   1.192   .     D
C6416  O6418   1.196   .     D
C6419  O6420   1.212   .     D
C6419  O6421   1.185   .     D
C6422  O6423   1.188   .     D
C6422  O6424   1.193   .     D
C6425  O6426   1.166   .     D
C6425  O6427   1.185   .     D
C6428  O6429   1.197   .     D
C6428  O6430   1.181   .     D
C6431  O6432   1.203   .     D
C6431  O6433   1.187   .     D
C6434  O6435   1.186   .     D
C6434  O6436   1.189   .     D
C6437  O6438   1.202   .     D
C6437  O6439   1.187   .     D
C6440  O6441   1.212   .     D
C6440  O6442   1.211   .     D
C6443  O6444   1.197   .     D
C6443  O6445   1.197   .     D
C6446  O6447   1.210   .     D
C6446  O6448   1.206   .     D
C6449  O6450   1.183   .     D
C6449  O6451   1.215   .     D
C6452  O6453   1.188   .     D
C6452  O6454   1.187   .     D
C6455  O6456   1.169   .     D
C6455  O6457   1.201   .     D
C6458  O6459   1.226   .     D
C6458  O6460   1.221   .     D
C6461  O6462   1.192   .     D
C6461  O6463   1.192   .     D
C6464  O6465   1.193   .     D
C6464  O6466   1.160   .     D
C6467  O6468   1.197   .     D
C6467  O6469   1.165   .     D
C6470  O6471   1.181   .     D
C6470  O6472   1.201   .     D
C6473  O6474   1.199   .     D
C6473  O6475   1.170   .     D
C6476  O6477   1.191   .     D
C6476  O6478   1.171   .     D
C6479  O6480   1.171   .     D
C6479  O6481   1.174   .     D
C6482  O6483   1.210   .     D
C6482  O6484   1.143   .     D
C6485  O6486   1.162   .     D
C6485  O6487   1.189   .     D
C6488  O6489   1.212   .     D
C6488  O6490   1.182   .     D
C6491  O6492   1.198   .     D
C6491  O6493   1.181   .     D
C6494  O6495   1.214   .     D
C6494  O6496   1.206   .     D
C6497  O6498   1.198   .     D
C6497  O6499   1.196   .     D
C6500  O6501   1.206   .     D
C6500  O6502   1.218   .     D
C6503  O6504   1.206   .     D
C6503  O6505   1.160   .     D
C6506  O6507   1.215   .     D
C6506  O6508   1.200   .     D
C6509  O6510   1.191   .     D
C6509  O6511   1.184   .     D
C6512  O6513   1.196   .     D
C6512  O6514   1.188   .     D
C6515  O6516   1.228   .     D
C6515  O6517   1.186   .     D
C6518  O6519   1.206   .     D
C6518  O6520   1.191   .     D
C6521  O6522   1.194   .     D
C6521  O6523   1.205   .     D
C6524  O6525   1.216   .     D
C6524  O6526   1.194   .     D
C6527  O6528   1.189   .     D
C6527  O6529   1.198   .     D
C6530  O6531   1.178   .     D
C6530  O6532   1.196   .     D
C6533  O6534   1.150   .     D
C6533  O6535   1.184   .     D
C6536  O6537   1.210   .     D
C6536  O6538   1.168   .     D
C6539  O6540   1.192   .     D
C6539  O6541   1.238   .     D
C6542  O6543   1.190   .     D
C6542  O6544   1.169   .     D
C6545  O6546   1.205   .     D
C6545  O6547   1.199   .     D
C6548  O6549   1.215   .     D
C6548  O6550   1.213   .     D
C6551  O6552   1.186   .     D
C6551  O6553   1.207   .     D
C6554  O6555   1.183   .     D
C6554  O6556   1.211   .     D
C6557  O6558   1.210   .     D
C6557  O6559   1.207   .     D
C6560  O6561   1.198   .     D
C6560  O6562   1.200   .     D
C6563  O6564   1.211   .     D
C6563  O6565   1.182   .     D
C6566  O6567   1.188   .     D
C6566  O6568   1.212   .     D
C6569  O6570   1.212   .     D
C6569  O6571   1.198   .     D
C6572  O6573   1.196   .     D
C6572  O6574   1.195   .     D
C6575  O6576   1.197   .     D
C6575  O6577   1.168   .     D
C6578  O6579   1.190   .     D
C6578  O6580   1.194   .     D
C6581  O6582   1.195   .     D
C6581  O6583   1.206   .     D
C6584  O6585   1.196   .     D
C6584  O6586   1.189   .     D
C6587  O6588   1.196   .     D
C6587  O6589   1.180   .     D
C6590  O6591   1.187   .     D
C6590  O6592   1.189   .     D
C6593  O6594   1.197   .     D
C6593  O6595   1.213   .     D
C6596  O6597   1.168   .     D
C6596  O6598   1.175   .     D
C6599  O6600   1.197   .     D
C6599  O6601   1.188   .     D
C6602  O6603   1.192   .     D
C6602  O6604   1.183   .     D
C6605  O6606   1.195   .     D
C6605  O6607   1.214   .     D
C6608  O6609   1.196   .     D
C6608  O6610   1.202   .     D
C6611  O6612   1.204   .     D
C6611  O6613   1.188   .     D
C6614  O6615   1.209   .     D
C6614  O6616   1.220   .     D
C6617  O6618   1.191   .     D
C6617  O6619   1.197   .     D
C6620  O6621   1.180   .     D
C6620  O6622   1.183   .     D
C6623  O6624   1.179   .     D
C6623  O6625   1.185   .     D
C6626  O6627   1.211   .     D
C6626  O6628   1.203   .     D
C6629  O6630   1.201   .     D
C6629  O6631   1.203   .     D
C6632  O6633   1.204   .     D
C6632  O6634   1.250   .     D
C6635  O6636   1.175   .     D
C6635  O6637   1.189   .     D
C6638  O6639   1.194   .     D
C6638  O6640   1.192   .     D
C6641  O6642   1.224   .     D
C6641  O6643   1.179   .     D
C6644  O6645   1.196   .     D
C6644  O6646   1.209   .     D
C6647  O6648   1.196   .     D
C6647  O6649   1.186   .     D
C6650  O6651   1.201   .     D
C6650  O6652   1.189   .     D
C6653  O6654   1.210   .     D
C6653  O6655   1.182   .     D
C6656  O6657   1.196   .     D
C6656  O6658   1.198   .     D
C6659  O6660   1.199   .     D
C6659  O6661   1.195   .     D
C6662  O6663   1.226   .     D
C6662  O6664   1.222   .     D
C6665  O6666   1.166   .     D
C6665  O6667   1.188   .     D
C6668  O6669   1.191   .     D
C6668  O6670   1.198   .     D
C6671  O6672   1.191   .     D
C6671  O6673   1.193   .     D
C6674  O6675   1.210   .     D
C6674  O6676   1.202   .     D
C6677  O6678   1.209   .     D
C6677  O6679   1.207   .     D
C6680  O6681   1.201   .     D
C6680  O6682   1.184   .     D
C6683  O6684   1.190   .     D
C6683  O6685   1.211   .     D
C6686  O6687   1.205   .     D
C6686  O6688   1.203   .     D
C6689  O6690   1.168   .     D
C6689  O6691   1.211   .     D
C6692  O6693   1.193   .     D
C6692  O6694   1.206   .     D
C6695  O6696   1.190   .     D
C6695  O6697   1.181   .     D
C6698  O6699   1.171   .     D
C6698  O6700   1.197   .     D
C6701  O6702   1.205   .     D
C6701  O6703   1.232   .     D
C6704  O6705   1.191   .     D
C6704  O6706   1.190   .     D
C6707  O6708   1.199   .     D
C6707  O6709   1.188   .     D
C6710  O6711   1.190   .     D
C6710  O6712   1.185   .     D
C6713  O6714   1.204   .     D
C6713  O6715   1.195   .     D
C6716  O6717   1.183   .     D
C6716  O6718   1.194   .     D
C6719  O6720   1.183   .     D
C6719  O6721   1.192   .     D
C6722  O6723   1.197   .     D
C6722  O6724   1.171   .     D
C6725  O6726   1.199   .     D
C6725  O6727   1.198   .     D
C6728  O6729   1.153   .     D
C6728  O6730   1.192   .     D
C6731  O6732   1.186   .     D
C6731  O6733   1.173   .     D
C6734  O6735   1.178   .     D
C6734  O6736   1.200   .     D
C6737  O6738   1.202   .     D
C6737  O6739   1.194   .     D
C6740  O6741   1.209   .     D
C6740  O6742   1.202   .     D
C6743  O6744   1.155   .     D
C6743  O6745   1.216   .     D
C6746  O6747   1.199   .     D
C6746  O6748   1.169   .     D
C6749  O6750   1.198   .     D
C6749  O6751   1.190   .     D
C6752  O6753   1.193   .     D
C6752  O6754   1.189   .     D
C6755  O6756   1.207   .     D
C6755  O6757   1.209   .     D
C6758  O6759   1.196   .     D
C6758  O6760   1.174   .     D
C6761  O6762   1.218   .     D
C6761  O6763   1.195   .     D
C6764  O6765   1.237   .     D
C6764  O6766   1.185   .     D
C6767  O6768   1.156   .     D
C6767  O6769   1.225   .     D
C6770  O6771   1.201   .     D
C6770  O6772   1.204   .     D
C6773  O6774   1.197   .     D
C6773  O6775   1.203   .     D
C6776  O6777   1.207   .     D
C6776  O6778   1.197   .     D
C6779  O6780   1.191   .     D
C6779  O6781   1.192   .     D
C6782  O6783   1.192   .     D
C6782  O6784   1.187   .     D
C6785  O6786   1.194   .     D
C6785  O6787   1.197   .     D
C6788  O6789   1.196   .     D
C6788  O6790   1.188   .     D
C6791  O6792   1.196   .     D
C6791  O6793   1.176   .     D
C6794  O6795   1.189   .     D
C6794  O6796   1.201   .     D
C6797  O6798   1.202   .     D
C6797  O6799   1.210   .     D
C6800  O6801   1.181   .     D
C6800  O6802   1.192   .     D
C6803  O6804   1.200   .     D
C6803  O6805   1.190   .     D
C6806  O6807   1.212   .     D
C6806  O6808   1.194   .     D
C6809  O6810   1.180   .     D
C6809  O6811   1.214   .     D
C6812  O6813   1.195   .     D
C6812  O6814   1.208   .     D
C6815  O6816   1.203   .     D
C6815  O6817   1.205   .     D
C6818  O6819   1.200   .     D
C6818  O6820   1.164   .     D
C6821  O6822   1.164   .     D
C6821  O6823   1.190   .     D
C6824  O6825   1.197   .     D
C6824  O6826   1.192   .     D
C6827  O6828   1.187   .     D
C6827  O6829   1.195   .     D
C6830  O6831   1.199   .     D
C6830  O6832   1.198   .     D
C6833  O6834   1.173   .     D
C6833  O6835   1.194   .     D
C6836  O6837   1.189   .     D
C6836  O6838   1.189   .     D
C6839  O6840   1.183   .     D
C6839  O6841   1.211   .     D
C6842  O6843   1.199   .     D
C6842  O6844   1.200   .     D
C6845  O6846   1.221   .     D
C6845  O6847   1.182   .     D
C6848  O6849   1.216   .     D
C6848  O6850   1.196   .     D
C6851  O6852   1.196   .     D
C6851  O6853   1.225   .     D
C6854  O6855   1.201   .     D
C6854  O6856   1.203   .     D
C6857  O6858   1.188   .     D
C6857  O6859   1.220   .     D
C6860  O6861   1.217   .     D
C6860  O6862   1.216   .     D
C6863  O6864   1.209   .     D
C6863  O6865   1.235   .     D
C6866  O6867   1.192   .     D
C6866  O6868   1.189   .     D
C6869  O6870   1.190   .     D
C6869  O6871   1.205   .     D
C6872  O6873   1.222   .     D
C6872  O6874   1.218   .     D
C6875  O6876   1.193   .     D
C6875  O6877   1.182   .     D
C6878  O6879   1.197   .     D
C6878  O6880   1.191   .     D
C6881  O6882   1.189   .     D
C6881  O6883   1.194   .     D
C6884  O6885   1.196   .     D
C6884  O6886   1.212   .     D
C6887  O6888   1.219   .     D
C6887  O6889   1.201   .     D
C6890  O6891   1.207   .     D
C6890  O6892   1.197   .     D
C6893  O6894   1.219   .     D
C6893  O6895   1.216   .     D
C6896  O6897   1.219   .     D
C6896  O6898   1.182   .     D
C6899  O6900   1.204   .     D
C6899  O6901   1.203   .     D
C6902  O6903   1.207   .     D
C6902  O6904   1.208   .     D
C6905  O6906   1.183   .     D
C6905  O6907   1.218   .     D
C6908  O6909   1.195   .     D
C6908  O6910   1.217   .     D
C6911  O6912   1.192   .     D
C6911  O6913   1.186   .     D
C6914  O6915   1.210   .     D
C6914  O6916   1.207   .     D
C6917  O6918   1.181   .     D
C6917  O6919   1.178   .     D
C6920  O6921   1.172   .     D
C6920  O6922   1.167   .     D
C6923  O6924   1.182   .     D
C6923  O6925   1.191   .     D
C6926  O6927   1.192   .     D
C6926  O6928   1.197   .     D
C6929  O6930   1.192   .     D
C6929  O6931   1.212   .     D
C6932  O6933   1.206   .     D
C6932  O6934   1.204   .     D
C6935  O6936   1.209   .     D
C6935  O6937   1.205   .     D
C6938  O6939   1.207   .     D
C6938  O6940   1.198   .     D
C6941  O6942   1.190   .     D
C6941  O6943   1.190   .     D
C6944  O6945   1.185   .     D
C6944  O6946   1.193   .     D
C6947  O6948   1.194   .     D
C6947  O6949   1.193   .     D
C6950  O6951   1.194   .     D
C6950  O6952   1.204   .     D
C6953  O6954   1.202   .     D
C6953  O6955   1.194   .     D
C6956  O6957   1.204   .     D
C6956  O6958   1.204   .     D
C6959  O6960   1.204   .     D
C6959  O6961   1.209   .     D
C6962  O6963   1.199   .     D
C6962  O6964   1.199   .     D
C6965  O6966   1.193   .     D
C6965  O6967   1.222   .     D
C6968  O6969   1.190   .     D
C6968  O6970   1.195   .     D
C6971  O6972   1.213   .     D
C6971  O6973   1.190   .     D
C6974  O6975   1.201   .     D
C6974  O6976   1.189   .     D
C6977  O6978   1.196   .     D
C6977  O6979   1.197   .     D
C6980  O6981   1.206   .     D
C6980  O6982   1.184   .     D
C6983  O6984   1.240   .     D
C6983  O6985   1.171   .     D
C6986  O6987   1.198   .     D
C6986  O6988   1.183   .     D
C6989  O6990   1.197   .     D
C6989  O6991   1.191   .     D
C6992  O6993   1.215   .     D
C6992  O6994   1.190   .     D
C6995  O6996   1.196   .     D
C6995  O6997   1.200   .     D
C6998  O6999   1.175   .     D
C6998  O7000   1.218   .     D
C7001  O7002   1.191   .     D
C7001  O7003   1.200   .     D
C7004  O7005   1.194   .     D
C7004  O7006   1.191   .     D
C7007  O7008   1.178   .     D
C7007  O7009   1.156   .     D
C7010  O7011   1.206   .     D
C7010  O7012   1.210   .     D
C7013  O7014   1.198   .     D
C7013  O7015   1.193   .     D
C7016  O7017   1.181   .     D
C7016  O7018   1.186   .     D
C7019  O7020   1.226   .     D
C7019  O7021   1.200   .     D
C7022  O7023   1.196   .     D
C7022  O7024   1.200   .     D
C7025  O7026   1.169   .     D
C7025  O7027   1.198   .     D
C7028  O7029   1.193   .     D
C7028  O7030   1.183   .     D
C7031  O7032   1.189   .     D
C7031  O7033   1.199   .     D
C7034  O7035   1.219   .     D
C7034  O7036   1.229   .     D
C7037  O7038   1.193   .     D
C7037  O7039   1.180   .     D
C7040  O7041   1.197   .     D
C7040  O7042   1.177   .     D
C7043  O7044   1.214   .     D
C7043  O7045   1.217   .     D
C7046  O7047   1.193   .     D
C7046  O7048   1.174   .     D
C7049  O7050   1.189   .     D
C7049  O7051   1.136   .     D
C7052  O7053   1.207   .     D
C7052  O7054   1.219   .     D
C7055  O7056   1.203   .     D
C7055  O7057   1.205   .     D
C7058  O7059   1.197   .     D
C7058  O7060   1.204   .     D
C7061  O7062   1.199   .     D
C7061  O7063   1.204   .     D
C7064  O7065   1.195   .     D
C7064  O7066   1.195   .     D
C7067  O7068   1.195   .     D
C7067  O7069   1.213   .     D
C7070  O7071   1.221   .     D
C7070  O7072   1.206   .     D
C7073  O7074   1.193   .     D
C7073  O7075   1.202   .     D
C7076  O7077   1.200   .     D
C7076  O7078   1.196   .     D
C7079  O7080   1.199   .     D
C7079  O7081   1.191   .     D
C7082  O7083   1.199   .     D
C7082  O7084   1.187   .     D
C7085  O7086   1.168   .     D
C7085  O7087   1.217   .     D
C7088  O7089   1.194   .     D
C7088  O7090   1.208   .     D
C7091  O7092   1.188   .     D
C7091  O7093   1.203   .     D
C7094  O7095   1.225   .     D
C7094  O7096   1.212   .     D
C7097  O7098   1.167   .     D
C7097  O7099   1.207   .     D
C7100  O7101   1.193   .     D
C7100  O7102   1.165   .     D
C7103  O7104   1.194   .     D
C7103  O7105   1.196   .     D
C7106  O7107   1.205   .     D
C7106  O7108   1.210   .     D
C7109  O7110   1.221   .     D
C7109  O7111   1.203   .     D
C7112  O7113   1.219   .     D
C7112  O7114   1.179   .     D
C7115  O7116   1.202   .     D
C7115  O7117   1.202   .     D
C7118  O7119   1.215   .     D
C7118  O7120   1.184   .     D
C7121  O7122   1.256   .     D
C7121  O7123   1.199   .     D
C7124  O7125   1.175   .     D
C7124  O7126   1.188   .     D
C7127  O7128   1.222   .     D
C7127  O7129   1.189   .     D
C7130  O7131   1.194   .     D
C7130  O7132   1.202   .     D
C7133  O7134   1.202   .     D
C7133  O7135   1.185   .     D
C7136  O7137   1.194   .     D
C7136  O7138   1.181   .     D
C7139  O7140   1.176   .     D
C7139  O7141   1.190   .     D
C7142  O7143   1.193   .     D
C7142  O7144   1.189   .     D
C7145  O7146   1.197   .     D
C7145  O7147   1.196   .     D
C7148  O7149   1.197   .     D
C7148  O7150   1.198   .     D
C7151  O7152   1.184   .     D
C7151  O7153   1.219   .     D
C7154  O7155   1.198   .     D
C7154  O7156   1.189   .     D
C7157  O7158   1.195   .     D
C7157  O7159   1.219   .     D
C7160  O7161   1.186   .     D
C7160  O7162   1.203   .     D
C7163  O7164   1.190   .     D
C7163  O7165   1.197   .     D
C7166  O7167   1.206   .     D
C7166  O7168   1.213   .     D
C7169  O7170   1.206   .     D
C7169  O7171   1.206   .     D
C7172  O7173   1.197   .     D
C7172  O7174   1.179   .     D
C7175  O7176   1.201   .     D
C7175  O7177   1.199   .     D
C7178  O7179   1.160   .     D
C7178  O7180   1.175   .     D
C7181  O7182   1.181   .     D
C7181  O7183   1.190   .     D
C7184  O7185   1.196   .     D
C7184  O7186   1.221   .     D
C7187  O7188   1.224   .     D
C7187  O7189   1.261   .     D
C7190  O7191   1.161   .     D
C7190  O7192   1.185   .     D
C7193  O7194   1.191   .     D
C7193  O7195   1.202   .     D
C7196  O7197   1.203   .     D
C7196  O7198   1.222   .     D
C7199  O7200   1.204   .     D
C7199  O7201   1.179   .     D
C7202  O7203   1.199   .     D
C7202  O7204   1.221   .     D
C7205  O7206   1.198   .     D
C7205  O7207   1.190   .     D
C7208  O7209   1.207   .     D
C7208  O7210   1.218   .     D
C7211  O7212   1.228   .     D
C7211  O7213   1.231   .     D
C7214  O7215   1.187   .     D
C7214  O7216   1.174   .     D
C7217  O7218   1.174   .     D
C7217  O7219   1.167   .     D
C7220  O7221   1.171   .     D
C7220  O7222   1.188   .     D
C7223  O7224   1.199   .     D
C7223  O7225   1.199   .     D
C7226  O7227   1.197   .     D
C7226  O7228   1.177   .     D
C7229  O7230   1.173   .     D
C7229  O7231   1.189   .     D
C7232  O7233   1.194   .     D
C7232  O7234   1.190   .     D
C7235  O7236   1.230   .     D
C7235  O7237   1.212   .     D
C7238  O7239   1.186   .     D
C7238  O7240   1.204   .     D
C7241  O7242   1.201   .     D
C7241  O7243   1.170   .     D
C7244  O7245   1.176   .     D
C7244  O7246   1.189   .     D
C7247  O7248   1.197   .     D
C7247  O7249   1.174   .     D
C7250  O7251   1.206   .     D
C7250  O7252   1.209   .     D
C7253  O7254   1.192   .     D
C7253  O7255   1.204   .     D
C7256  O7257   1.195   .     D
C7256  O7258   1.195   .     D
C7259  O7260   1.186   .     D
C7259  O7261   1.192   .     D
C7262  O7263   1.202   .     D
C7262  O7264   1.192   .     D
C7265  O7266   1.192   .     D
C7265  O7267   1.176   .     D
C7268  O7269   1.215   .     D
C7268  O7270   1.203   .     D
C7271  O7272   1.219   .     D
C7271  O7273   1.203   .     D
C7274  O7275   1.180   .     D
C7274  O7276   1.193   .     D
C7277  O7278   1.182   .     D
C7277  O7279   1.198   .     D
C7280  O7281   1.199   .     D
C7280  O7282   1.180   .     D
C7283  O7284   1.183   .     D
C7283  O7285   1.194   .     D
C7286  O7287   1.195   .     D
C7286  O7288   1.210   .     D
C7289  O7290   1.224   .     D
C7289  O7291   1.208   .     D
C7292  O7293   1.205   .     D
C7292  O7294   1.167   .     D
C7295  O7296   1.194   .     D
C7295  O7297   1.192   .     D
C7298  O7299   1.185   .     D
C7298  O7300   1.189   .     D
C7301  O7302   1.192   .     D
C7301  O7303   1.196   .     D
C7304  O7305   1.193   .     D
C7304  O7306   1.212   .     D
C7307  O7308   1.185   .     D
C7307  O7309   1.180   .     D
C7310  O7311   1.192   .     D
C7310  O7312   1.182   .     D
C7313  O7314   1.185   .     D
C7313  O7315   1.187   .     D
C7316  O7317   1.189   .     D
C7316  O7318   1.172   .     D
C7319  O7320   1.205   .     D
C7319  O7321   1.195   .     D
C7322  O7323   1.209   .     D
C7322  O7324   1.194   .     D
C7325  O7326   1.187   .     D
C7325  O7327   1.183   .     D
C7328  O7329   1.186   .     D
C7328  O7330   1.188   .     D
C7331  O7332   1.174   .     D
C7331  O7333   1.201   .     D
C7334  O7335   1.203   .     D
C7334  O7336   1.193   .     D
C7337  O7338   1.196   .     D
C7337  O7339   1.192   .     D
C7340  O7341   1.196   .     D
C7340  O7342   1.189   .     D
C7343  O7344   1.197   .     D
C7343  O7345   1.205   .     D
C7346  O7347   1.194   .     D
C7346  O7348   1.189   .     D
C7349  O7350   1.215   .     D
C7349  O7351   1.193   .     D
C7352  O7353   1.194   .     D
C7352  O7354   1.186   .     D
C7355  O7356   1.201   .     D
C7355  O7357   1.207   .     D
C7358  O7359   1.203   .     D
C7358  O7360   1.185   .     D
C7361  O7362   1.214   .     D
C7361  O7363   1.175   .     D
C7364  O7365   1.187   .     D
C7364  O7366   1.174   .     D
C7367  O7368   1.200   .     D
C7367  O7369   1.189   .     D
C7370  O7371   1.186   .     D
C7370  O7372   1.181   .     D
C7373  O7374   1.186   .     D
C7373  O7375   1.196   .     D
C7376  O7377   1.214   .     D
C7376  O7378   1.209   .     D
C7379  O7380   1.202   .     D
C7379  O7381   1.185   .     D
C7382  O7383   1.200   .     D
C7382  O7384   1.196   .     D
C7385  O7386   1.210   .     D
C7385  O7387   1.203   .     D
C7388  O7389   1.178   .     D
C7388  O7390   1.204   .     D
C7391  O7392   1.181   .     D
C7391  O7393   1.197   .     D
C7394  O7395   1.196   .     D
C7394  O7396   1.194   .     D
C7397  O7398   1.181   .     D
C7397  O7399   1.210   .     D
C7400  O7401   1.228   .     D
C7400  O7402   1.183   .     D
C7403  O7404   1.183   .     D
C7403  O7405   1.197   .     D
C7406  O7407   1.193   .     D
C7406  O7408   1.186   .     D
C7409  O7410   1.168   .     D
C7409  O7411   1.185   .     D
C7412  O7413   1.206   .     D
C7412  O7414   1.187   .     D
C7415  O7416   1.196   .     D
C7415  O7417   1.181   .     D
C7418  O7419   1.198   .     D
C7418  O7420   1.194   .     D
C7421  O7422   1.188   .     D
C7421  O7423   1.181   .     D
C7424  O7425   1.201   .     D
C7424  O7426   1.192   .     D
C7427  O7428   1.192   .     D
C7427  O7429   1.193   .     D
C7430  O7431   1.185   .     D
C7430  O7432   1.201   .     D
C7433  O7434   1.181   .     D
C7433  O7435   1.193   .     D
C7436  O7437   1.186   .     D
C7436  O7438   1.178   .     D
C7439  O7440   1.175   .     D
C7439  O7441   1.193   .     D
C7442  O7443   1.167   .     D
C7442  O7444   1.176   .     D
C7445  O7446   1.197   .     D
C7445  O7447   1.201   .     D
C7448  O7449   1.202   .     D
C7448  O7450   1.209   .     D
C7451  O7452   1.189   .     D
C7451  O7453   1.187   .     D
C7454  O7455   1.196   .     D
C7454  O7456   1.174   .     D
C7457  O7458   1.201   .     D
C7457  O7459   1.204   .     D
C7460  O7461   1.220   .     D
C7460  O7462   1.179   .     D
C7463  O7464   1.199   .     D
C7463  O7465   1.196   .     D
C7466  O7467   1.206   .     D
C7466  O7468   1.203   .     D
C7469  O7470   1.217   .     D
C7469  O7471   1.184   .     D
C7472  O7473   1.205   .     D
C7472  O7474   1.216   .     D
C7475  O7476   1.236   .     D
C7475  O7477   1.182   .     D
C7478  O7479   1.203   .     D
C7478  O7480   1.191   .     D
C7481  O7482   1.175   .     D
C7481  O7483   1.207   .     D
C7484  O7485   1.189   .     D
C7484  O7486   1.181   .     D
C7487  O7488   1.189   .     D
C7487  O7489   1.198   .     D
C7490  O7491   1.201   .     D
C7490  O7492   1.202   .     D
C7493  O7494   1.202   .     D
C7493  O7495   1.211   .     D
C7496  O7497   1.219   .     D
C7496  O7498   1.170   .     D
C7499  O7500   1.186   .     D
C7499  O7501   1.196   .     D
C7502  O7503   1.201   .     D
C7502  O7504   1.182   .     D
C7505  O7506   1.178   .     D
C7505  O7507   1.187   .     D
C7508  O7509   1.183   .     D
C7508  O7510   1.181   .     D
C7511  O7512   1.221   .     D
C7511  O7513   1.176   .     D
C7514  O7515   1.200   .     D
C7514  O7516   1.162   .     D
C7517  O7518   1.200   .     D
C7517  O7519   1.200   .     D
C7520  O7521   1.214   .     D
C7520  O7522   1.189   .     D
C7523  O7524   1.159   .     D
C7523  O7525   1.185   .     D
C7526  O7527   1.199   .     D
C7526  O7528   1.190   .     D
C7529  O7530   1.160   .     D
C7529  O7531   1.174   .     D
C7532  O7533   1.175   .     D
C7532  O7534   1.196   .     D
C7535  O7536   1.201   .     D
C7535  O7537   1.204   .     D
C7538  O7539   1.199   .     D
C7538  O7540   1.185   .     D
C7541  O7542   1.194   .     D
C7541  O7543   1.201   .     D
C7544  O7545   1.188   .     D
C7544  O7546   1.207   .     D
C7547  O7548   1.187   .     D
C7547  O7549   1.201   .     D
C7550  O7551   1.199   .     D
C7550  O7552   1.203   .     D
C7553  O7554   1.215   .     D
C7553  O7555   1.209   .     D
C7556  O7557   1.188   .     D
C7556  O7558   1.191   .     D
C7559  O7560   1.204   .     D
C7559  O7561   1.195   .     D
C7562  O7563   1.194   .     D
C7562  O7564   1.199   .     D
C7565  O7566   1.236   .     D
C7565  O7567   1.204   .     D
C7568  O7569   1.194   .     D
C7568  O7570   1.182   .     D
C7571  O7572   1.181   .     D
C7571  O7573   1.177   .     D
C7574  O7575   1.212   .     D
C7574  O7576   1.176   .     D
C7577  O7578   1.205   .     D
C7577  O7579   1.212   .     D
C7580  O7581   1.183   .     D
C7580  O7582   1.202   .     D
C7583  O7584   1.187   .     D
C7583  O7585   1.160   .     D
C7586  O7587   1.219   .     D
C7586  O7588   1.187   .     D
C7589  O7590   1.175   .     D
C7589  O7591   1.180   .     D
C7592  O7593   1.196   .     D
C7592  O7594   1.194   .     D
C7595  O7596   1.221   .     D
C7595  O7597   1.172   .     D
C7598  O7599   1.215   .     D
C7598  O7600   1.200   .     D
C7601  O7602   1.188   .     D
C7601  O7603   1.190   .     D
C7604  O7605   1.180   .     D
C7604  O7606   1.174   .     D
C7607  O7608   1.190   .     D
C7607  O7609   1.194   .     D
C7610  O7611   1.181   .     D
C7610  O7612   1.217   .     D
C7613  O7614   1.195   .     D
C7613  O7615   1.169   .     D
C7616  O7617   1.210   .     D
C7616  O7618   1.209   .     D
C7619  O7620   1.204   .     D
C7619  O7621   1.179   .     D
C7622  O7623   1.210   .     D
C7622  O7624   1.210   .     D
C7625  O7626   1.219   .     D
C7625  O7627   1.207   .     D
C7628  O7629   1.205   .     D
C7628  O7630   1.208   .     D
C7631  O7632   1.198   .     D
C7631  O7633   1.195   .     D
C7634  O7635   1.204   .     D
C7634  O7636   1.192   .     D
C7637  O7638   1.179   .     D
C7637  O7639   1.215   .     D
C7640  O7641   1.193   .     D
C7640  O7642   1.197   .     D
C7643  O7644   1.195   .     D
C7643  O7645   1.192   .     D
C7646  O7647   1.197   .     D
C7646  O7648   1.156   .     D
C7649  O7650   1.175   .     D
C7649  O7651   1.185   .     D
C7652  O7653   1.222   .     D
C7652  O7654   1.230   .     D
C7655  O7656   1.189   .     D
C7655  O7657   1.208   .     D
C7658  O7659   1.196   .     D
C7658  O7660   1.193   .     D
C7661  O7662   1.205   .     D
C7661  O7663   1.189   .     D
C7664  O7665   1.198   .     D
C7664  O7666   1.184   .     D
C7667  O7668   1.190   .     D
C7667  O7669   1.198   .     D
C7670  O7671   1.193   .     D
C7670  O7672   1.190   .     D
C7673  O7674   1.189   .     D
C7673  O7675   1.181   .     D
C7676  O7677   1.198   .     D
C7676  O7678   1.185   .     D
C7679  O7680   1.186   .     D
C7679  O7681   1.188   .     D
C7682  O7683   1.199   .     D
C7682  O7684   1.193   .     D
C7685  O7686   1.194   .     D
C7685  O7687   1.192   .     D
C7688  O7689   1.230   .     D
C7688  O7690   1.204   .     D
C7691  O7692   1.190   .     D
C7691  O7693   1.215   .     D
C7694  O7695   1.162   .     D
C7694  O7696   1.177   .     D
C7697  O7698   1.139   .     D
C7697  O7699   1.185   .     D
C7700  O7701   1.214   .     D
C7700  O7702   1.181   .     D
C7703  O7704   1.216   .     D
C7703  O7705   1.211   .     D
C7706  O7707   1.179   .     D
C7706  O7708   1.213   .     D
C7709  O7710   1.195   .     D
C7709  O7711   1.210   .     D
C7712  O7713   1.184   .     D
C7712  O7714   1.193   .     D
C7715  O7716   1.179   .     D
C7715  O7717   1.175   .     D
C7718  O7719   1.203   .     D
C7718  O7720   1.199   .     D
C7721  O7722   1.174   .     D
C7721  O7723   1.197   .     D
C7724  O7725   1.172   .     D
C7724  O7726   1.193   .     D
C7727  O7728   1.199   .     D
C7727  O7729   1.184   .     D
C7730  O7731   1.209   .     D
C7730  O7732   1.162   .     D
C7733  O7734   1.210   .     D
C7733  O7735   1.194   .     D
C7736  O7737   1.201   .     D
C7736  O7738   1.183   .     D
C7739  O7740   1.236   .     D
C7739  O7741   1.218   .     D
C7742  O7743   1.187   .     D
C7742  O7744   1.183   .     D
C7745  O7746   1.186   .     D
C7745  O7747   1.170   .     D
C7748  O7749   1.189   .     D
C7748  O7750   1.182   .     D
C7751  O7752   1.134   .     D
C7751  O7753   1.203   .     D
C7754  O7755   1.210   .     D
C7754  O7756   1.197   .     D
C7757  O7758   1.175   .     D
C7757  O7759   1.194   .     D
C7760  O7761   1.193   .     D
C7760  O7762   1.229   .     D
C7763  O7764   1.224   .     D
C7763  O7765   1.177   .     D
C7766  O7767   1.167   .     D
C7766  O7768   1.230   .     D
C7769  O7770   1.202   .     D
C7769  O7771   1.202   .     D
C7772  O7773   1.190   .     D
C7772  O7774   1.200   .     D
C7775  O7776   1.185   .     D
C7775  O7777   1.189   .     D
C7778  O7779   1.184   .     D
C7778  O7780   1.207   .     D
C7781  O7782   1.191   .     D
C7781  O7783   1.188   .     D
C7784  O7785   1.190   .     D
C7784  O7786   1.208   .     D
C7787  O7788   1.202   .     D
C7787  O7789   1.202   .     D
C7790  O7791   1.194   .     D
C7790  O7792   1.183   .     D
C7793  O7794   1.187   .     D
C7793  O7795   1.208   .     D
C7796  O7797   1.175   .     D
C7796  O7798   1.200   .     D
C7799  O7800   1.202   .     D
C7799  O7801   1.188   .     D
C7802  O7803   1.185   .     D
C7802  O7804   1.200   .     D
C7805  O7806   1.200   .     D
C7805  O7807   1.185   .     D
C7808  O7809   1.205   .     D
C7808  O7810   1.186   .     D
C7811  O7812   1.203   .     D
C7811  O7813   1.192   .     D
C7814  O7815   1.195   .     D
C7814  O7816   1.183   .     D
C7817  O7818   1.164   .     D
C7817  O7819   1.206   .     D
C7820  O7821   1.220   .     D
C7820  O7822   1.228   .     D
C7823  O7824   1.202   .     D
C7823  O7825   1.200   .     D
C7826  O7827   1.219   .     D
C7826  O7828   1.185   .     D
C7829  O7830   1.236   .     D
C7829  O7831   1.236   .     D
C7832  O7833   1.192   .     D
C7832  O7834   1.188   .     D
C7835  O7836   1.186   .     D
C7835  O7837   1.192   .     D
C7838  O7839   1.189   .     D
C7838  O7840   1.175   .     D
C7841  O7842   1.205   .     D
C7841  O7843   1.202   .     D
C7844  O7845   1.187   .     D
C7844  O7846   1.189   .     D
C7847  O7848   1.184   .     D
C7847  O7849   1.199   .     D
C7850  O7851   1.162   .     D
C7850  O7852   1.164   .     D
C7853  O7854   1.167   .     D
C7853  O7855   1.197   .     D
C7856  O7857   1.184   .     D
C7856  O7858   1.203   .     D
C7859  O7860   1.187   .     D
C7859  O7861   1.198   .     D
C7862  O7863   1.204   .     D
C7862  O7864   1.182   .     D
C7865  O7866   1.178   .     D
C7865  O7867   1.182   .     D
C7868  O7869   1.190   .     D
C7868  O7870   1.203   .     D
C7871  O7872   1.207   .     D
C7871  O7873   1.192   .     D
C7874  O7875   1.197   .     D
C7874  O7876   1.198   .     D
C7877  O7878   1.186   .     D
C7877  O7879   1.215   .     D
C7880  O7881   1.159   .     D
C7880  O7882   1.186   .     D
C7883  O7884   1.166   .     D
C7883  O7885   1.194   .     D
C7886  O7887   1.197   .     D
C7886  O7888   1.195   .     D
C7889  O7890   1.206   .     D
C7889  O7891   1.175   .     D
C7892  O7893   1.201   .     D
C7892  O7894   1.216   .     D
C7895  O7896   1.196   .     D
C7895  O7897   1.195   .     D
C7898  O7899   1.187   .     D
C7898  O7900   1.185   .     D
C7901  O7902   1.202   .     D
C7901  O7903   1.194   .     D
C7904  O7905   1.234   .     D
C7904  O7906   1.197   .     D
C7907  O7908   1.194   .     D
C7907  O7909   1.204   .     D
C7910  O7911   1.198   .     D
C7910  O7912   1.200   .     D
C7913  O7914   1.202   .     D
C7913  O7915   1.210   .     D
C7916  O7917   1.197   .     D
C7916  O7918   1.184   .     D
C7919  O7920   1.206   .     D
C7919  O7921   1.198   .     D
C7922  O7923   1.186   .     D
C7922  O7924   1.196   .     D
C7925  O7926   1.187   .     D
C7925  O7927   1.182   .     D
C7928  O7929   1.198   .     D
C7928  O7930   1.204   .     D
C7931  O7932   1.177   .     D
C7931  O7933   1.150   .     D
C7934  O7935   1.192   .     D
C7934  O7936   1.193   .     D
C7938  O7939   1.198   .     D
C7938  O7940   1.198   .     D
C7941  O7942   1.194   .     D
C7941  O7943   1.192   .     D
C7944  O7945   1.247   .     D
C7944  O7946   1.177   .     D
C7947  O7948   1.204   .     D
C7947  O7949   1.185   .     D
C7950  O7951   1.205   .     D
C7950  O7952   1.203   .     D
C7953  O7954   1.205   .     D
C7953  O7955   1.181   .     D
C7956  O7957   1.128   .     D
C7956  O7958   1.237   .     D
